[General]
network = TandemQueueSystem
sim-time-limit = 10000s
warmup-period = 0s
repeat = 20
output-vector-file = results.vec
output-scalar-file = results.sca
*.collector.collect = true
*.collector.vector-recording = true
*.collector.scalar-recording = true
*.collector.interval = 1s

[Config Config1]
description = Configuration with Strategy=0, N=1, lambda=2.0s, m1=0.4s, m2=0.4s, pDistribution = uniform(1, 3), vDistribution = uniform(14, 16)
**.Strategy = 0
**.lambda = 2.0s
**.m1 = 0.4s
**.m2 = 0.4s
**.pDistribution = uniform(1, 3)
**.vDistribution = uniform(14, 16)
**.CW = 1.0
**.N = 1

[Config Config2]
description = Configuration with Strategy=1, N=1, lambda=2.0s, m1=0.4s, m2=0.4s, pDistribution = uniform(1, 3), vDistribution = uniform(14, 16)
**.Strategy = 1
**.lambda = 2.0s
**.m1 = 0.4s
**.m2 = 0.4s
**.pDistribution = uniform(1, 3)
**.vDistribution = uniform(14, 16)
**.CW = 1.0
**.N = 1

[Config Config3]
description = Configuration with Strategy=0, N=2, lambda=2.0s, m1=0.4s, m2=0.4s, pDistribution = uniform(1, 3), vDistribution = uniform(14, 16)
**.Strategy = 0
**.lambda = 2.0s
**.m1 = 0.4s
**.m2 = 0.4s
**.pDistribution = uniform(1, 3)
**.vDistribution = uniform(14, 16)
**.CW = 1.0
**.N = 2

[Config Config4]
description = Configuration with Strategy=1, N=2, lambda=2.0s, m1=0.4s, m2=0.4s, pDistribution = uniform(1, 3), vDistribution = uniform(14, 16)
**.Strategy = 1
**.lambda = 2.0s
**.m1 = 0.4s
**.m2 = 0.4s
**.pDistribution = uniform(1, 3)
**.vDistribution = uniform(14, 16)
**.CW = 1.0
**.N = 2

[Config Config5]
description = Configuration with Strategy=0, N=3, lambda=2.0s, m1=0.4s, m2=0.4s, pDistribution = uniform(1, 3), vDistribution = uniform(14, 16)
**.Strategy = 0
**.lambda = 2.0s
**.m1 = 0.4s
**.m2 = 0.4s
**.pDistribution = uniform(1, 3)
**.vDistribution = uniform(14, 16)
**.CW = 1.0
**.N = 3

[Config Config6]
description = Configuration with Strategy=1, N=3, lambda=2.0s, m1=0.4s, m2=0.4s, pDistribution = uniform(1, 3), vDistribution = uniform(14, 16)
**.Strategy = 1
**.lambda = 2.0s
**.m1 = 0.4s
**.m2 = 0.4s
**.pDistribution = uniform(1, 3)
**.vDistribution = uniform(14, 16)
**.CW = 1.0
**.N = 3

[Config Config7]
description = Configuration with Strategy=0, N=4, lambda=2.0s, m1=0.4s, m2=0.4s, pDistribution = uniform(1, 3), vDistribution = uniform(14, 16)
**.Strategy = 0
**.lambda = 2.0s
**.m1 = 0.4s
**.m2 = 0.4s
**.pDistribution = uniform(1, 3)
**.vDistribution = uniform(14, 16)
**.CW = 1.0
**.N = 4

[Config Config8]
description = Configuration with Strategy=1, N=4, lambda=2.0s, m1=0.4s, m2=0.4s, pDistribution = uniform(1, 3), vDistribution = uniform(14, 16)
**.Strategy = 1
**.lambda = 2.0s
**.m1 = 0.4s
**.m2 = 0.4s
**.pDistribution = uniform(1, 3)
**.vDistribution = uniform(14, 16)
**.CW = 1.0
**.N = 4

[Config Config9]
description = Configuration with Strategy=0, N=5, lambda=2.0s, m1=0.4s, m2=0.4s, pDistribution = uniform(1, 3), vDistribution = uniform(14, 16)
**.Strategy = 0
**.lambda = 2.0s
**.m1 = 0.4s
**.m2 = 0.4s
**.pDistribution = uniform(1, 3)
**.vDistribution = uniform(14, 16)
**.CW = 1.0
**.N = 5

[Config Config10]
description = Configuration with Strategy=1, N=5, lambda=2.0s, m1=0.4s, m2=0.4s, pDistribution = uniform(1, 3), vDistribution = uniform(14, 16)
**.Strategy = 1
**.lambda = 2.0s
**.m1 = 0.4s
**.m2 = 0.4s
**.pDistribution = uniform(1, 3)
**.vDistribution = uniform(14, 16)
**.CW = 1.0
**.N = 5

[Config Config11]
description = Configuration with Strategy=0, N=1, lambda=2.0s, m1=0.4s, m2=0.4s, pDistribution = uniform(1, 3), vDistribution = uniform(18, 20)
**.Strategy = 0
**.lambda = 2.0s
**.m1 = 0.4s
**.m2 = 0.4s
**.pDistribution = uniform(1, 3)
**.vDistribution = uniform(18, 20)
**.CW = 1.0
**.N = 1

[Config Config12]
description = Configuration with Strategy=1, N=1, lambda=2.0s, m1=0.4s, m2=0.4s, pDistribution = uniform(1, 3), vDistribution = uniform(18, 20)
**.Strategy = 1
**.lambda = 2.0s
**.m1 = 0.4s
**.m2 = 0.4s
**.pDistribution = uniform(1, 3)
**.vDistribution = uniform(18, 20)
**.CW = 1.0
**.N = 1

[Config Config13]
description = Configuration with Strategy=0, N=2, lambda=2.0s, m1=0.4s, m2=0.4s, pDistribution = uniform(1, 3), vDistribution = uniform(18, 20)
**.Strategy = 0
**.lambda = 2.0s
**.m1 = 0.4s
**.m2 = 0.4s
**.pDistribution = uniform(1, 3)
**.vDistribution = uniform(18, 20)
**.CW = 1.0
**.N = 2

[Config Config14]
description = Configuration with Strategy=1, N=2, lambda=2.0s, m1=0.4s, m2=0.4s, pDistribution = uniform(1, 3), vDistribution = uniform(18, 20)
**.Strategy = 1
**.lambda = 2.0s
**.m1 = 0.4s
**.m2 = 0.4s
**.pDistribution = uniform(1, 3)
**.vDistribution = uniform(18, 20)
**.CW = 1.0
**.N = 2

[Config Config15]
description = Configuration with Strategy=0, N=3, lambda=2.0s, m1=0.4s, m2=0.4s, pDistribution = uniform(1, 3), vDistribution = uniform(18, 20)
**.Strategy = 0
**.lambda = 2.0s
**.m1 = 0.4s
**.m2 = 0.4s
**.pDistribution = uniform(1, 3)
**.vDistribution = uniform(18, 20)
**.CW = 1.0
**.N = 3

[Config Config16]
description = Configuration with Strategy=1, N=3, lambda=2.0s, m1=0.4s, m2=0.4s, pDistribution = uniform(1, 3), vDistribution = uniform(18, 20)
**.Strategy = 1
**.lambda = 2.0s
**.m1 = 0.4s
**.m2 = 0.4s
**.pDistribution = uniform(1, 3)
**.vDistribution = uniform(18, 20)
**.CW = 1.0
**.N = 3

[Config Config17]
description = Configuration with Strategy=0, N=4, lambda=2.0s, m1=0.4s, m2=0.4s, pDistribution = uniform(1, 3), vDistribution = uniform(18, 20)
**.Strategy = 0
**.lambda = 2.0s
**.m1 = 0.4s
**.m2 = 0.4s
**.pDistribution = uniform(1, 3)
**.vDistribution = uniform(18, 20)
**.CW = 1.0
**.N = 4

[Config Config18]
description = Configuration with Strategy=1, N=4, lambda=2.0s, m1=0.4s, m2=0.4s, pDistribution = uniform(1, 3), vDistribution = uniform(18, 20)
**.Strategy = 1
**.lambda = 2.0s
**.m1 = 0.4s
**.m2 = 0.4s
**.pDistribution = uniform(1, 3)
**.vDistribution = uniform(18, 20)
**.CW = 1.0
**.N = 4

[Config Config19]
description = Configuration with Strategy=0, N=5, lambda=2.0s, m1=0.4s, m2=0.4s, pDistribution = uniform(1, 3), vDistribution = uniform(18, 20)
**.Strategy = 0
**.lambda = 2.0s
**.m1 = 0.4s
**.m2 = 0.4s
**.pDistribution = uniform(1, 3)
**.vDistribution = uniform(18, 20)
**.CW = 1.0
**.N = 5

[Config Config20]
description = Configuration with Strategy=1, N=5, lambda=2.0s, m1=0.4s, m2=0.4s, pDistribution = uniform(1, 3), vDistribution = uniform(18, 20)
**.Strategy = 1
**.lambda = 2.0s
**.m1 = 0.4s
**.m2 = 0.4s
**.pDistribution = uniform(1, 3)
**.vDistribution = uniform(18, 20)
**.CW = 1.0
**.N = 5

[Config Config21]
description = Configuration with Strategy=0, N=1, lambda=2.0s, m1=0.4s, m2=0.4s, pDistribution = uniform(1, 3), vDistribution = uniform(20, 22)
**.Strategy = 0
**.lambda = 2.0s
**.m1 = 0.4s
**.m2 = 0.4s
**.pDistribution = uniform(1, 3)
**.vDistribution = uniform(20, 22)
**.CW = 1.0
**.N = 1

[Config Config22]
description = Configuration with Strategy=1, N=1, lambda=2.0s, m1=0.4s, m2=0.4s, pDistribution = uniform(1, 3), vDistribution = uniform(20, 22)
**.Strategy = 1
**.lambda = 2.0s
**.m1 = 0.4s
**.m2 = 0.4s
**.pDistribution = uniform(1, 3)
**.vDistribution = uniform(20, 22)
**.CW = 1.0
**.N = 1

[Config Config23]
description = Configuration with Strategy=0, N=2, lambda=2.0s, m1=0.4s, m2=0.4s, pDistribution = uniform(1, 3), vDistribution = uniform(20, 22)
**.Strategy = 0
**.lambda = 2.0s
**.m1 = 0.4s
**.m2 = 0.4s
**.pDistribution = uniform(1, 3)
**.vDistribution = uniform(20, 22)
**.CW = 1.0
**.N = 2

[Config Config24]
description = Configuration with Strategy=1, N=2, lambda=2.0s, m1=0.4s, m2=0.4s, pDistribution = uniform(1, 3), vDistribution = uniform(20, 22)
**.Strategy = 1
**.lambda = 2.0s
**.m1 = 0.4s
**.m2 = 0.4s
**.pDistribution = uniform(1, 3)
**.vDistribution = uniform(20, 22)
**.CW = 1.0
**.N = 2

[Config Config25]
description = Configuration with Strategy=0, N=3, lambda=2.0s, m1=0.4s, m2=0.4s, pDistribution = uniform(1, 3), vDistribution = uniform(20, 22)
**.Strategy = 0
**.lambda = 2.0s
**.m1 = 0.4s
**.m2 = 0.4s
**.pDistribution = uniform(1, 3)
**.vDistribution = uniform(20, 22)
**.CW = 1.0
**.N = 3

[Config Config26]
description = Configuration with Strategy=1, N=3, lambda=2.0s, m1=0.4s, m2=0.4s, pDistribution = uniform(1, 3), vDistribution = uniform(20, 22)
**.Strategy = 1
**.lambda = 2.0s
**.m1 = 0.4s
**.m2 = 0.4s
**.pDistribution = uniform(1, 3)
**.vDistribution = uniform(20, 22)
**.CW = 1.0
**.N = 3

[Config Config27]
description = Configuration with Strategy=0, N=4, lambda=2.0s, m1=0.4s, m2=0.4s, pDistribution = uniform(1, 3), vDistribution = uniform(20, 22)
**.Strategy = 0
**.lambda = 2.0s
**.m1 = 0.4s
**.m2 = 0.4s
**.pDistribution = uniform(1, 3)
**.vDistribution = uniform(20, 22)
**.CW = 1.0
**.N = 4

[Config Config28]
description = Configuration with Strategy=1, N=4, lambda=2.0s, m1=0.4s, m2=0.4s, pDistribution = uniform(1, 3), vDistribution = uniform(20, 22)
**.Strategy = 1
**.lambda = 2.0s
**.m1 = 0.4s
**.m2 = 0.4s
**.pDistribution = uniform(1, 3)
**.vDistribution = uniform(20, 22)
**.CW = 1.0
**.N = 4

[Config Config29]
description = Configuration with Strategy=0, N=5, lambda=2.0s, m1=0.4s, m2=0.4s, pDistribution = uniform(1, 3), vDistribution = uniform(20, 22)
**.Strategy = 0
**.lambda = 2.0s
**.m1 = 0.4s
**.m2 = 0.4s
**.pDistribution = uniform(1, 3)
**.vDistribution = uniform(20, 22)
**.CW = 1.0
**.N = 5

[Config Config30]
description = Configuration with Strategy=1, N=5, lambda=2.0s, m1=0.4s, m2=0.4s, pDistribution = uniform(1, 3), vDistribution = uniform(20, 22)
**.Strategy = 1
**.lambda = 2.0s
**.m1 = 0.4s
**.m2 = 0.4s
**.pDistribution = uniform(1, 3)
**.vDistribution = uniform(20, 22)
**.CW = 1.0
**.N = 5

[Config Config31]
description = Configuration with Strategy=0, N=1, lambda=2.0s, m1=0.4s, m2=0.4s, pDistribution = uniform(4, 6), vDistribution = uniform(14, 16)
**.Strategy = 0
**.lambda = 2.0s
**.m1 = 0.4s
**.m2 = 0.4s
**.pDistribution = uniform(4, 6)
**.vDistribution = uniform(14, 16)
**.CW = 1.0
**.N = 1

[Config Config32]
description = Configuration with Strategy=1, N=1, lambda=2.0s, m1=0.4s, m2=0.4s, pDistribution = uniform(4, 6), vDistribution = uniform(14, 16)
**.Strategy = 1
**.lambda = 2.0s
**.m1 = 0.4s
**.m2 = 0.4s
**.pDistribution = uniform(4, 6)
**.vDistribution = uniform(14, 16)
**.CW = 1.0
**.N = 1

[Config Config33]
description = Configuration with Strategy=0, N=2, lambda=2.0s, m1=0.4s, m2=0.4s, pDistribution = uniform(4, 6), vDistribution = uniform(14, 16)
**.Strategy = 0
**.lambda = 2.0s
**.m1 = 0.4s
**.m2 = 0.4s
**.pDistribution = uniform(4, 6)
**.vDistribution = uniform(14, 16)
**.CW = 1.0
**.N = 2

[Config Config34]
description = Configuration with Strategy=1, N=2, lambda=2.0s, m1=0.4s, m2=0.4s, pDistribution = uniform(4, 6), vDistribution = uniform(14, 16)
**.Strategy = 1
**.lambda = 2.0s
**.m1 = 0.4s
**.m2 = 0.4s
**.pDistribution = uniform(4, 6)
**.vDistribution = uniform(14, 16)
**.CW = 1.0
**.N = 2

[Config Config35]
description = Configuration with Strategy=0, N=3, lambda=2.0s, m1=0.4s, m2=0.4s, pDistribution = uniform(4, 6), vDistribution = uniform(14, 16)
**.Strategy = 0
**.lambda = 2.0s
**.m1 = 0.4s
**.m2 = 0.4s
**.pDistribution = uniform(4, 6)
**.vDistribution = uniform(14, 16)
**.CW = 1.0
**.N = 3

[Config Config36]
description = Configuration with Strategy=1, N=3, lambda=2.0s, m1=0.4s, m2=0.4s, pDistribution = uniform(4, 6), vDistribution = uniform(14, 16)
**.Strategy = 1
**.lambda = 2.0s
**.m1 = 0.4s
**.m2 = 0.4s
**.pDistribution = uniform(4, 6)
**.vDistribution = uniform(14, 16)
**.CW = 1.0
**.N = 3

[Config Config37]
description = Configuration with Strategy=0, N=4, lambda=2.0s, m1=0.4s, m2=0.4s, pDistribution = uniform(4, 6), vDistribution = uniform(14, 16)
**.Strategy = 0
**.lambda = 2.0s
**.m1 = 0.4s
**.m2 = 0.4s
**.pDistribution = uniform(4, 6)
**.vDistribution = uniform(14, 16)
**.CW = 1.0
**.N = 4

[Config Config38]
description = Configuration with Strategy=1, N=4, lambda=2.0s, m1=0.4s, m2=0.4s, pDistribution = uniform(4, 6), vDistribution = uniform(14, 16)
**.Strategy = 1
**.lambda = 2.0s
**.m1 = 0.4s
**.m2 = 0.4s
**.pDistribution = uniform(4, 6)
**.vDistribution = uniform(14, 16)
**.CW = 1.0
**.N = 4

[Config Config39]
description = Configuration with Strategy=0, N=5, lambda=2.0s, m1=0.4s, m2=0.4s, pDistribution = uniform(4, 6), vDistribution = uniform(14, 16)
**.Strategy = 0
**.lambda = 2.0s
**.m1 = 0.4s
**.m2 = 0.4s
**.pDistribution = uniform(4, 6)
**.vDistribution = uniform(14, 16)
**.CW = 1.0
**.N = 5

[Config Config40]
description = Configuration with Strategy=1, N=5, lambda=2.0s, m1=0.4s, m2=0.4s, pDistribution = uniform(4, 6), vDistribution = uniform(14, 16)
**.Strategy = 1
**.lambda = 2.0s
**.m1 = 0.4s
**.m2 = 0.4s
**.pDistribution = uniform(4, 6)
**.vDistribution = uniform(14, 16)
**.CW = 1.0
**.N = 5

[Config Config41]
description = Configuration with Strategy=0, N=1, lambda=2.0s, m1=0.4s, m2=0.4s, pDistribution = uniform(4, 6), vDistribution = uniform(18, 20)
**.Strategy = 0
**.lambda = 2.0s
**.m1 = 0.4s
**.m2 = 0.4s
**.pDistribution = uniform(4, 6)
**.vDistribution = uniform(18, 20)
**.CW = 1.0
**.N = 1

[Config Config42]
description = Configuration with Strategy=1, N=1, lambda=2.0s, m1=0.4s, m2=0.4s, pDistribution = uniform(4, 6), vDistribution = uniform(18, 20)
**.Strategy = 1
**.lambda = 2.0s
**.m1 = 0.4s
**.m2 = 0.4s
**.pDistribution = uniform(4, 6)
**.vDistribution = uniform(18, 20)
**.CW = 1.0
**.N = 1

[Config Config43]
description = Configuration with Strategy=0, N=2, lambda=2.0s, m1=0.4s, m2=0.4s, pDistribution = uniform(4, 6), vDistribution = uniform(18, 20)
**.Strategy = 0
**.lambda = 2.0s
**.m1 = 0.4s
**.m2 = 0.4s
**.pDistribution = uniform(4, 6)
**.vDistribution = uniform(18, 20)
**.CW = 1.0
**.N = 2

[Config Config44]
description = Configuration with Strategy=1, N=2, lambda=2.0s, m1=0.4s, m2=0.4s, pDistribution = uniform(4, 6), vDistribution = uniform(18, 20)
**.Strategy = 1
**.lambda = 2.0s
**.m1 = 0.4s
**.m2 = 0.4s
**.pDistribution = uniform(4, 6)
**.vDistribution = uniform(18, 20)
**.CW = 1.0
**.N = 2

[Config Config45]
description = Configuration with Strategy=0, N=3, lambda=2.0s, m1=0.4s, m2=0.4s, pDistribution = uniform(4, 6), vDistribution = uniform(18, 20)
**.Strategy = 0
**.lambda = 2.0s
**.m1 = 0.4s
**.m2 = 0.4s
**.pDistribution = uniform(4, 6)
**.vDistribution = uniform(18, 20)
**.CW = 1.0
**.N = 3

[Config Config46]
description = Configuration with Strategy=1, N=3, lambda=2.0s, m1=0.4s, m2=0.4s, pDistribution = uniform(4, 6), vDistribution = uniform(18, 20)
**.Strategy = 1
**.lambda = 2.0s
**.m1 = 0.4s
**.m2 = 0.4s
**.pDistribution = uniform(4, 6)
**.vDistribution = uniform(18, 20)
**.CW = 1.0
**.N = 3

[Config Config47]
description = Configuration with Strategy=0, N=4, lambda=2.0s, m1=0.4s, m2=0.4s, pDistribution = uniform(4, 6), vDistribution = uniform(18, 20)
**.Strategy = 0
**.lambda = 2.0s
**.m1 = 0.4s
**.m2 = 0.4s
**.pDistribution = uniform(4, 6)
**.vDistribution = uniform(18, 20)
**.CW = 1.0
**.N = 4

[Config Config48]
description = Configuration with Strategy=1, N=4, lambda=2.0s, m1=0.4s, m2=0.4s, pDistribution = uniform(4, 6), vDistribution = uniform(18, 20)
**.Strategy = 1
**.lambda = 2.0s
**.m1 = 0.4s
**.m2 = 0.4s
**.pDistribution = uniform(4, 6)
**.vDistribution = uniform(18, 20)
**.CW = 1.0
**.N = 4

[Config Config49]
description = Configuration with Strategy=0, N=5, lambda=2.0s, m1=0.4s, m2=0.4s, pDistribution = uniform(4, 6), vDistribution = uniform(18, 20)
**.Strategy = 0
**.lambda = 2.0s
**.m1 = 0.4s
**.m2 = 0.4s
**.pDistribution = uniform(4, 6)
**.vDistribution = uniform(18, 20)
**.CW = 1.0
**.N = 5

[Config Config50]
description = Configuration with Strategy=1, N=5, lambda=2.0s, m1=0.4s, m2=0.4s, pDistribution = uniform(4, 6), vDistribution = uniform(18, 20)
**.Strategy = 1
**.lambda = 2.0s
**.m1 = 0.4s
**.m2 = 0.4s
**.pDistribution = uniform(4, 6)
**.vDistribution = uniform(18, 20)
**.CW = 1.0
**.N = 5

[Config Config51]
description = Configuration with Strategy=0, N=1, lambda=2.0s, m1=0.4s, m2=0.4s, pDistribution = uniform(4, 6), vDistribution = uniform(20, 22)
**.Strategy = 0
**.lambda = 2.0s
**.m1 = 0.4s
**.m2 = 0.4s
**.pDistribution = uniform(4, 6)
**.vDistribution = uniform(20, 22)
**.CW = 1.0
**.N = 1

[Config Config52]
description = Configuration with Strategy=1, N=1, lambda=2.0s, m1=0.4s, m2=0.4s, pDistribution = uniform(4, 6), vDistribution = uniform(20, 22)
**.Strategy = 1
**.lambda = 2.0s
**.m1 = 0.4s
**.m2 = 0.4s
**.pDistribution = uniform(4, 6)
**.vDistribution = uniform(20, 22)
**.CW = 1.0
**.N = 1

[Config Config53]
description = Configuration with Strategy=0, N=2, lambda=2.0s, m1=0.4s, m2=0.4s, pDistribution = uniform(4, 6), vDistribution = uniform(20, 22)
**.Strategy = 0
**.lambda = 2.0s
**.m1 = 0.4s
**.m2 = 0.4s
**.pDistribution = uniform(4, 6)
**.vDistribution = uniform(20, 22)
**.CW = 1.0
**.N = 2

[Config Config54]
description = Configuration with Strategy=1, N=2, lambda=2.0s, m1=0.4s, m2=0.4s, pDistribution = uniform(4, 6), vDistribution = uniform(20, 22)
**.Strategy = 1
**.lambda = 2.0s
**.m1 = 0.4s
**.m2 = 0.4s
**.pDistribution = uniform(4, 6)
**.vDistribution = uniform(20, 22)
**.CW = 1.0
**.N = 2

[Config Config55]
description = Configuration with Strategy=0, N=3, lambda=2.0s, m1=0.4s, m2=0.4s, pDistribution = uniform(4, 6), vDistribution = uniform(20, 22)
**.Strategy = 0
**.lambda = 2.0s
**.m1 = 0.4s
**.m2 = 0.4s
**.pDistribution = uniform(4, 6)
**.vDistribution = uniform(20, 22)
**.CW = 1.0
**.N = 3

[Config Config56]
description = Configuration with Strategy=1, N=3, lambda=2.0s, m1=0.4s, m2=0.4s, pDistribution = uniform(4, 6), vDistribution = uniform(20, 22)
**.Strategy = 1
**.lambda = 2.0s
**.m1 = 0.4s
**.m2 = 0.4s
**.pDistribution = uniform(4, 6)
**.vDistribution = uniform(20, 22)
**.CW = 1.0
**.N = 3

[Config Config57]
description = Configuration with Strategy=0, N=4, lambda=2.0s, m1=0.4s, m2=0.4s, pDistribution = uniform(4, 6), vDistribution = uniform(20, 22)
**.Strategy = 0
**.lambda = 2.0s
**.m1 = 0.4s
**.m2 = 0.4s
**.pDistribution = uniform(4, 6)
**.vDistribution = uniform(20, 22)
**.CW = 1.0
**.N = 4

[Config Config58]
description = Configuration with Strategy=1, N=4, lambda=2.0s, m1=0.4s, m2=0.4s, pDistribution = uniform(4, 6), vDistribution = uniform(20, 22)
**.Strategy = 1
**.lambda = 2.0s
**.m1 = 0.4s
**.m2 = 0.4s
**.pDistribution = uniform(4, 6)
**.vDistribution = uniform(20, 22)
**.CW = 1.0
**.N = 4

[Config Config59]
description = Configuration with Strategy=0, N=5, lambda=2.0s, m1=0.4s, m2=0.4s, pDistribution = uniform(4, 6), vDistribution = uniform(20, 22)
**.Strategy = 0
**.lambda = 2.0s
**.m1 = 0.4s
**.m2 = 0.4s
**.pDistribution = uniform(4, 6)
**.vDistribution = uniform(20, 22)
**.CW = 1.0
**.N = 5

[Config Config60]
description = Configuration with Strategy=1, N=5, lambda=2.0s, m1=0.4s, m2=0.4s, pDistribution = uniform(4, 6), vDistribution = uniform(20, 22)
**.Strategy = 1
**.lambda = 2.0s
**.m1 = 0.4s
**.m2 = 0.4s
**.pDistribution = uniform(4, 6)
**.vDistribution = uniform(20, 22)
**.CW = 1.0
**.N = 5

[Config Config61]
description = Configuration with Strategy=0, N=1, lambda=2.0s, m1=0.4s, m2=0.4s, pDistribution = uniform(8, 10), vDistribution = uniform(14, 16)
**.Strategy = 0
**.lambda = 2.0s
**.m1 = 0.4s
**.m2 = 0.4s
**.pDistribution = uniform(8, 10)
**.vDistribution = uniform(14, 16)
**.CW = 1.0
**.N = 1

[Config Config62]
description = Configuration with Strategy=1, N=1, lambda=2.0s, m1=0.4s, m2=0.4s, pDistribution = uniform(8, 10), vDistribution = uniform(14, 16)
**.Strategy = 1
**.lambda = 2.0s
**.m1 = 0.4s
**.m2 = 0.4s
**.pDistribution = uniform(8, 10)
**.vDistribution = uniform(14, 16)
**.CW = 1.0
**.N = 1

[Config Config63]
description = Configuration with Strategy=0, N=2, lambda=2.0s, m1=0.4s, m2=0.4s, pDistribution = uniform(8, 10), vDistribution = uniform(14, 16)
**.Strategy = 0
**.lambda = 2.0s
**.m1 = 0.4s
**.m2 = 0.4s
**.pDistribution = uniform(8, 10)
**.vDistribution = uniform(14, 16)
**.CW = 1.0
**.N = 2

[Config Config64]
description = Configuration with Strategy=1, N=2, lambda=2.0s, m1=0.4s, m2=0.4s, pDistribution = uniform(8, 10), vDistribution = uniform(14, 16)
**.Strategy = 1
**.lambda = 2.0s
**.m1 = 0.4s
**.m2 = 0.4s
**.pDistribution = uniform(8, 10)
**.vDistribution = uniform(14, 16)
**.CW = 1.0
**.N = 2

[Config Config65]
description = Configuration with Strategy=0, N=3, lambda=2.0s, m1=0.4s, m2=0.4s, pDistribution = uniform(8, 10), vDistribution = uniform(14, 16)
**.Strategy = 0
**.lambda = 2.0s
**.m1 = 0.4s
**.m2 = 0.4s
**.pDistribution = uniform(8, 10)
**.vDistribution = uniform(14, 16)
**.CW = 1.0
**.N = 3

[Config Config66]
description = Configuration with Strategy=1, N=3, lambda=2.0s, m1=0.4s, m2=0.4s, pDistribution = uniform(8, 10), vDistribution = uniform(14, 16)
**.Strategy = 1
**.lambda = 2.0s
**.m1 = 0.4s
**.m2 = 0.4s
**.pDistribution = uniform(8, 10)
**.vDistribution = uniform(14, 16)
**.CW = 1.0
**.N = 3

[Config Config67]
description = Configuration with Strategy=0, N=4, lambda=2.0s, m1=0.4s, m2=0.4s, pDistribution = uniform(8, 10), vDistribution = uniform(14, 16)
**.Strategy = 0
**.lambda = 2.0s
**.m1 = 0.4s
**.m2 = 0.4s
**.pDistribution = uniform(8, 10)
**.vDistribution = uniform(14, 16)
**.CW = 1.0
**.N = 4

[Config Config68]
description = Configuration with Strategy=1, N=4, lambda=2.0s, m1=0.4s, m2=0.4s, pDistribution = uniform(8, 10), vDistribution = uniform(14, 16)
**.Strategy = 1
**.lambda = 2.0s
**.m1 = 0.4s
**.m2 = 0.4s
**.pDistribution = uniform(8, 10)
**.vDistribution = uniform(14, 16)
**.CW = 1.0
**.N = 4

[Config Config69]
description = Configuration with Strategy=0, N=5, lambda=2.0s, m1=0.4s, m2=0.4s, pDistribution = uniform(8, 10), vDistribution = uniform(14, 16)
**.Strategy = 0
**.lambda = 2.0s
**.m1 = 0.4s
**.m2 = 0.4s
**.pDistribution = uniform(8, 10)
**.vDistribution = uniform(14, 16)
**.CW = 1.0
**.N = 5

[Config Config70]
description = Configuration with Strategy=1, N=5, lambda=2.0s, m1=0.4s, m2=0.4s, pDistribution = uniform(8, 10), vDistribution = uniform(14, 16)
**.Strategy = 1
**.lambda = 2.0s
**.m1 = 0.4s
**.m2 = 0.4s
**.pDistribution = uniform(8, 10)
**.vDistribution = uniform(14, 16)
**.CW = 1.0
**.N = 5

[Config Config71]
description = Configuration with Strategy=0, N=1, lambda=2.0s, m1=0.4s, m2=0.4s, pDistribution = uniform(8, 10), vDistribution = uniform(18, 20)
**.Strategy = 0
**.lambda = 2.0s
**.m1 = 0.4s
**.m2 = 0.4s
**.pDistribution = uniform(8, 10)
**.vDistribution = uniform(18, 20)
**.CW = 1.0
**.N = 1

[Config Config72]
description = Configuration with Strategy=1, N=1, lambda=2.0s, m1=0.4s, m2=0.4s, pDistribution = uniform(8, 10), vDistribution = uniform(18, 20)
**.Strategy = 1
**.lambda = 2.0s
**.m1 = 0.4s
**.m2 = 0.4s
**.pDistribution = uniform(8, 10)
**.vDistribution = uniform(18, 20)
**.CW = 1.0
**.N = 1

[Config Config73]
description = Configuration with Strategy=0, N=2, lambda=2.0s, m1=0.4s, m2=0.4s, pDistribution = uniform(8, 10), vDistribution = uniform(18, 20)
**.Strategy = 0
**.lambda = 2.0s
**.m1 = 0.4s
**.m2 = 0.4s
**.pDistribution = uniform(8, 10)
**.vDistribution = uniform(18, 20)
**.CW = 1.0
**.N = 2

[Config Config74]
description = Configuration with Strategy=1, N=2, lambda=2.0s, m1=0.4s, m2=0.4s, pDistribution = uniform(8, 10), vDistribution = uniform(18, 20)
**.Strategy = 1
**.lambda = 2.0s
**.m1 = 0.4s
**.m2 = 0.4s
**.pDistribution = uniform(8, 10)
**.vDistribution = uniform(18, 20)
**.CW = 1.0
**.N = 2

[Config Config75]
description = Configuration with Strategy=0, N=3, lambda=2.0s, m1=0.4s, m2=0.4s, pDistribution = uniform(8, 10), vDistribution = uniform(18, 20)
**.Strategy = 0
**.lambda = 2.0s
**.m1 = 0.4s
**.m2 = 0.4s
**.pDistribution = uniform(8, 10)
**.vDistribution = uniform(18, 20)
**.CW = 1.0
**.N = 3

[Config Config76]
description = Configuration with Strategy=1, N=3, lambda=2.0s, m1=0.4s, m2=0.4s, pDistribution = uniform(8, 10), vDistribution = uniform(18, 20)
**.Strategy = 1
**.lambda = 2.0s
**.m1 = 0.4s
**.m2 = 0.4s
**.pDistribution = uniform(8, 10)
**.vDistribution = uniform(18, 20)
**.CW = 1.0
**.N = 3

[Config Config77]
description = Configuration with Strategy=0, N=4, lambda=2.0s, m1=0.4s, m2=0.4s, pDistribution = uniform(8, 10), vDistribution = uniform(18, 20)
**.Strategy = 0
**.lambda = 2.0s
**.m1 = 0.4s
**.m2 = 0.4s
**.pDistribution = uniform(8, 10)
**.vDistribution = uniform(18, 20)
**.CW = 1.0
**.N = 4

[Config Config78]
description = Configuration with Strategy=1, N=4, lambda=2.0s, m1=0.4s, m2=0.4s, pDistribution = uniform(8, 10), vDistribution = uniform(18, 20)
**.Strategy = 1
**.lambda = 2.0s
**.m1 = 0.4s
**.m2 = 0.4s
**.pDistribution = uniform(8, 10)
**.vDistribution = uniform(18, 20)
**.CW = 1.0
**.N = 4

[Config Config79]
description = Configuration with Strategy=0, N=5, lambda=2.0s, m1=0.4s, m2=0.4s, pDistribution = uniform(8, 10), vDistribution = uniform(18, 20)
**.Strategy = 0
**.lambda = 2.0s
**.m1 = 0.4s
**.m2 = 0.4s
**.pDistribution = uniform(8, 10)
**.vDistribution = uniform(18, 20)
**.CW = 1.0
**.N = 5

[Config Config80]
description = Configuration with Strategy=1, N=5, lambda=2.0s, m1=0.4s, m2=0.4s, pDistribution = uniform(8, 10), vDistribution = uniform(18, 20)
**.Strategy = 1
**.lambda = 2.0s
**.m1 = 0.4s
**.m2 = 0.4s
**.pDistribution = uniform(8, 10)
**.vDistribution = uniform(18, 20)
**.CW = 1.0
**.N = 5

[Config Config81]
description = Configuration with Strategy=0, N=1, lambda=2.0s, m1=0.4s, m2=0.4s, pDistribution = uniform(8, 10), vDistribution = uniform(20, 22)
**.Strategy = 0
**.lambda = 2.0s
**.m1 = 0.4s
**.m2 = 0.4s
**.pDistribution = uniform(8, 10)
**.vDistribution = uniform(20, 22)
**.CW = 1.0
**.N = 1

[Config Config82]
description = Configuration with Strategy=1, N=1, lambda=2.0s, m1=0.4s, m2=0.4s, pDistribution = uniform(8, 10), vDistribution = uniform(20, 22)
**.Strategy = 1
**.lambda = 2.0s
**.m1 = 0.4s
**.m2 = 0.4s
**.pDistribution = uniform(8, 10)
**.vDistribution = uniform(20, 22)
**.CW = 1.0
**.N = 1

[Config Config83]
description = Configuration with Strategy=0, N=2, lambda=2.0s, m1=0.4s, m2=0.4s, pDistribution = uniform(8, 10), vDistribution = uniform(20, 22)
**.Strategy = 0
**.lambda = 2.0s
**.m1 = 0.4s
**.m2 = 0.4s
**.pDistribution = uniform(8, 10)
**.vDistribution = uniform(20, 22)
**.CW = 1.0
**.N = 2

[Config Config84]
description = Configuration with Strategy=1, N=2, lambda=2.0s, m1=0.4s, m2=0.4s, pDistribution = uniform(8, 10), vDistribution = uniform(20, 22)
**.Strategy = 1
**.lambda = 2.0s
**.m1 = 0.4s
**.m2 = 0.4s
**.pDistribution = uniform(8, 10)
**.vDistribution = uniform(20, 22)
**.CW = 1.0
**.N = 2

[Config Config85]
description = Configuration with Strategy=0, N=3, lambda=2.0s, m1=0.4s, m2=0.4s, pDistribution = uniform(8, 10), vDistribution = uniform(20, 22)
**.Strategy = 0
**.lambda = 2.0s
**.m1 = 0.4s
**.m2 = 0.4s
**.pDistribution = uniform(8, 10)
**.vDistribution = uniform(20, 22)
**.CW = 1.0
**.N = 3

[Config Config86]
description = Configuration with Strategy=1, N=3, lambda=2.0s, m1=0.4s, m2=0.4s, pDistribution = uniform(8, 10), vDistribution = uniform(20, 22)
**.Strategy = 1
**.lambda = 2.0s
**.m1 = 0.4s
**.m2 = 0.4s
**.pDistribution = uniform(8, 10)
**.vDistribution = uniform(20, 22)
**.CW = 1.0
**.N = 3

[Config Config87]
description = Configuration with Strategy=0, N=4, lambda=2.0s, m1=0.4s, m2=0.4s, pDistribution = uniform(8, 10), vDistribution = uniform(20, 22)
**.Strategy = 0
**.lambda = 2.0s
**.m1 = 0.4s
**.m2 = 0.4s
**.pDistribution = uniform(8, 10)
**.vDistribution = uniform(20, 22)
**.CW = 1.0
**.N = 4

[Config Config88]
description = Configuration with Strategy=1, N=4, lambda=2.0s, m1=0.4s, m2=0.4s, pDistribution = uniform(8, 10), vDistribution = uniform(20, 22)
**.Strategy = 1
**.lambda = 2.0s
**.m1 = 0.4s
**.m2 = 0.4s
**.pDistribution = uniform(8, 10)
**.vDistribution = uniform(20, 22)
**.CW = 1.0
**.N = 4

[Config Config89]
description = Configuration with Strategy=0, N=5, lambda=2.0s, m1=0.4s, m2=0.4s, pDistribution = uniform(8, 10), vDistribution = uniform(20, 22)
**.Strategy = 0
**.lambda = 2.0s
**.m1 = 0.4s
**.m2 = 0.4s
**.pDistribution = uniform(8, 10)
**.vDistribution = uniform(20, 22)
**.CW = 1.0
**.N = 5

[Config Config90]
description = Configuration with Strategy=1, N=5, lambda=2.0s, m1=0.4s, m2=0.4s, pDistribution = uniform(8, 10), vDistribution = uniform(20, 22)
**.Strategy = 1
**.lambda = 2.0s
**.m1 = 0.4s
**.m2 = 0.4s
**.pDistribution = uniform(8, 10)
**.vDistribution = uniform(20, 22)
**.CW = 1.0
**.N = 5

[Config Config91]
description = Configuration with Strategy=0, N=1, lambda=2.0s, m1=0.4s, m2=0.3s, pDistribution = uniform(1, 3), vDistribution = uniform(14, 16)
**.Strategy = 0
**.lambda = 2.0s
**.m1 = 0.4s
**.m2 = 0.3s
**.pDistribution = uniform(1, 3)
**.vDistribution = uniform(14, 16)
**.CW = 1.0
**.N = 1

[Config Config92]
description = Configuration with Strategy=1, N=1, lambda=2.0s, m1=0.4s, m2=0.3s, pDistribution = uniform(1, 3), vDistribution = uniform(14, 16)
**.Strategy = 1
**.lambda = 2.0s
**.m1 = 0.4s
**.m2 = 0.3s
**.pDistribution = uniform(1, 3)
**.vDistribution = uniform(14, 16)
**.CW = 1.0
**.N = 1

[Config Config93]
description = Configuration with Strategy=0, N=2, lambda=2.0s, m1=0.4s, m2=0.3s, pDistribution = uniform(1, 3), vDistribution = uniform(14, 16)
**.Strategy = 0
**.lambda = 2.0s
**.m1 = 0.4s
**.m2 = 0.3s
**.pDistribution = uniform(1, 3)
**.vDistribution = uniform(14, 16)
**.CW = 1.0
**.N = 2

[Config Config94]
description = Configuration with Strategy=1, N=2, lambda=2.0s, m1=0.4s, m2=0.3s, pDistribution = uniform(1, 3), vDistribution = uniform(14, 16)
**.Strategy = 1
**.lambda = 2.0s
**.m1 = 0.4s
**.m2 = 0.3s
**.pDistribution = uniform(1, 3)
**.vDistribution = uniform(14, 16)
**.CW = 1.0
**.N = 2

[Config Config95]
description = Configuration with Strategy=0, N=3, lambda=2.0s, m1=0.4s, m2=0.3s, pDistribution = uniform(1, 3), vDistribution = uniform(14, 16)
**.Strategy = 0
**.lambda = 2.0s
**.m1 = 0.4s
**.m2 = 0.3s
**.pDistribution = uniform(1, 3)
**.vDistribution = uniform(14, 16)
**.CW = 1.0
**.N = 3

[Config Config96]