[General]
network = TandemQueueSystem
sim-time-limit = 10000s
warmup-period = 500s
repeat = 20
output-vector-file = results.vec
output-scalar-file = results.sca
*.collector.collect = true
*.collector.vector-recording = true
*.collector.scalar-recording = true
*.collector.interval = 1s

[Config Config1]
description = Configuration with Strategy=0, N=2, lambda=1.25s, m1=0.25s, m2=0.25s, pDistribution = uniform(1, 3), vDistribution = uniform(14, 16)
**.Strategy = 0
**.lambda = 1.25s
**.m1 = 0.25s
**.m2 = 0.25s
**.pDistribution = uniform(1, 3)
**.vDistribution = uniform(14, 16)
**.CW = 1.0
**.N = 2

[Config Config2]
description = Configuration with Strategy=1, N=2, lambda=1.25s, m1=0.25s, m2=0.25s, pDistribution = uniform(1, 3), vDistribution = uniform(14, 16)
**.Strategy = 1
**.lambda = 1.25s
**.m1 = 0.25s
**.m2 = 0.25s
**.pDistribution = uniform(1, 3)
**.vDistribution = uniform(14, 16)
**.CW = 1.0
**.N = 2

[Config Config3]
description = Configuration with Strategy=0, N=3, lambda=1.25s, m1=0.25s, m2=0.25s, pDistribution = uniform(1, 3), vDistribution = uniform(14, 16)
**.Strategy = 0
**.lambda = 1.25s
**.m1 = 0.25s
**.m2 = 0.25s
**.pDistribution = uniform(1, 3)
**.vDistribution = uniform(14, 16)
**.CW = 1.0
**.N = 3

[Config Config4]
description = Configuration with Strategy=1, N=3, lambda=1.25s, m1=0.25s, m2=0.25s, pDistribution = uniform(1, 3), vDistribution = uniform(14, 16)
**.Strategy = 1
**.lambda = 1.25s
**.m1 = 0.25s
**.m2 = 0.25s
**.pDistribution = uniform(1, 3)
**.vDistribution = uniform(14, 16)
**.CW = 1.0
**.N = 3

[Config Config5]
description = Configuration with Strategy=0, N=2, lambda=1.25s, m1=0.25s, m2=0.25s, pDistribution = uniform(1, 3), vDistribution = uniform(18, 20)
**.Strategy = 0
**.lambda = 1.25s
**.m1 = 0.25s
**.m2 = 0.25s
**.pDistribution = uniform(1, 3)
**.vDistribution = uniform(18, 20)
**.CW = 1.0
**.N = 2

[Config Config6]
description = Configuration with Strategy=1, N=2, lambda=1.25s, m1=0.25s, m2=0.25s, pDistribution = uniform(1, 3), vDistribution = uniform(18, 20)
**.Strategy = 1
**.lambda = 1.25s
**.m1 = 0.25s
**.m2 = 0.25s
**.pDistribution = uniform(1, 3)
**.vDistribution = uniform(18, 20)
**.CW = 1.0
**.N = 2

[Config Config7]
description = Configuration with Strategy=0, N=3, lambda=1.25s, m1=0.25s, m2=0.25s, pDistribution = uniform(1, 3), vDistribution = uniform(18, 20)
**.Strategy = 0
**.lambda = 1.25s
**.m1 = 0.25s
**.m2 = 0.25s
**.pDistribution = uniform(1, 3)
**.vDistribution = uniform(18, 20)
**.CW = 1.0
**.N = 3

[Config Config8]
description = Configuration with Strategy=1, N=3, lambda=1.25s, m1=0.25s, m2=0.25s, pDistribution = uniform(1, 3), vDistribution = uniform(18, 20)
**.Strategy = 1
**.lambda = 1.25s
**.m1 = 0.25s
**.m2 = 0.25s
**.pDistribution = uniform(1, 3)
**.vDistribution = uniform(18, 20)
**.CW = 1.0
**.N = 3

[Config Config9]
description = Configuration with Strategy=0, N=2, lambda=1.25s, m1=0.25s, m2=0.25s, pDistribution = uniform(1, 3), vDistribution = uniform(20, 22)
**.Strategy = 0
**.lambda = 1.25s
**.m1 = 0.25s
**.m2 = 0.25s
**.pDistribution = uniform(1, 3)
**.vDistribution = uniform(20, 22)
**.CW = 1.0
**.N = 2

[Config Config10]
description = Configuration with Strategy=1, N=2, lambda=1.25s, m1=0.25s, m2=0.25s, pDistribution = uniform(1, 3), vDistribution = uniform(20, 22)
**.Strategy = 1
**.lambda = 1.25s
**.m1 = 0.25s
**.m2 = 0.25s
**.pDistribution = uniform(1, 3)
**.vDistribution = uniform(20, 22)
**.CW = 1.0
**.N = 2

[Config Config11]
description = Configuration with Strategy=0, N=3, lambda=1.25s, m1=0.25s, m2=0.25s, pDistribution = uniform(1, 3), vDistribution = uniform(20, 22)
**.Strategy = 0
**.lambda = 1.25s
**.m1 = 0.25s
**.m2 = 0.25s
**.pDistribution = uniform(1, 3)
**.vDistribution = uniform(20, 22)
**.CW = 1.0
**.N = 3

[Config Config12]
description = Configuration with Strategy=1, N=3, lambda=1.25s, m1=0.25s, m2=0.25s, pDistribution = uniform(1, 3), vDistribution = uniform(20, 22)
**.Strategy = 1
**.lambda = 1.25s
**.m1 = 0.25s
**.m2 = 0.25s
**.pDistribution = uniform(1, 3)
**.vDistribution = uniform(20, 22)
**.CW = 1.0
**.N = 3

[Config Config13]
description = Configuration with Strategy=0, N=2, lambda=1.25s, m1=0.25s, m2=0.25s, pDistribution = uniform(4, 6), vDistribution = uniform(14, 16)
**.Strategy = 0
**.lambda = 1.25s
**.m1 = 0.25s
**.m2 = 0.25s
**.pDistribution = uniform(4, 6)
**.vDistribution = uniform(14, 16)
**.CW = 1.0
**.N = 2

[Config Config14]
description = Configuration with Strategy=1, N=2, lambda=1.25s, m1=0.25s, m2=0.25s, pDistribution = uniform(4, 6), vDistribution = uniform(14, 16)
**.Strategy = 1
**.lambda = 1.25s
**.m1 = 0.25s
**.m2 = 0.25s
**.pDistribution = uniform(4, 6)
**.vDistribution = uniform(14, 16)
**.CW = 1.0
**.N = 2

[Config Config15]
description = Configuration with Strategy=0, N=3, lambda=1.25s, m1=0.25s, m2=0.25s, pDistribution = uniform(4, 6), vDistribution = uniform(14, 16)
**.Strategy = 0
**.lambda = 1.25s
**.m1 = 0.25s
**.m2 = 0.25s
**.pDistribution = uniform(4, 6)
**.vDistribution = uniform(14, 16)
**.CW = 1.0
**.N = 3

[Config Config16]
description = Configuration with Strategy=1, N=3, lambda=1.25s, m1=0.25s, m2=0.25s, pDistribution = uniform(4, 6), vDistribution = uniform(14, 16)
**.Strategy = 1
**.lambda = 1.25s
**.m1 = 0.25s
**.m2 = 0.25s
**.pDistribution = uniform(4, 6)
**.vDistribution = uniform(14, 16)
**.CW = 1.0
**.N = 3

[Config Config17]
description = Configuration with Strategy=0, N=2, lambda=1.25s, m1=0.25s, m2=0.25s, pDistribution = uniform(4, 6), vDistribution = uniform(18, 20)
**.Strategy = 0
**.lambda = 1.25s
**.m1 = 0.25s
**.m2 = 0.25s
**.pDistribution = uniform(4, 6)
**.vDistribution = uniform(18, 20)
**.CW = 1.0
**.N = 2

[Config Config18]
description = Configuration with Strategy=1, N=2, lambda=1.25s, m1=0.25s, m2=0.25s, pDistribution = uniform(4, 6), vDistribution = uniform(18, 20)
**.Strategy = 1
**.lambda = 1.25s
**.m1 = 0.25s
**.m2 = 0.25s
**.pDistribution = uniform(4, 6)
**.vDistribution = uniform(18, 20)
**.CW = 1.0
**.N = 2

[Config Config19]
description = Configuration with Strategy=0, N=3, lambda=1.25s, m1=0.25s, m2=0.25s, pDistribution = uniform(4, 6), vDistribution = uniform(18, 20)
**.Strategy = 0
**.lambda = 1.25s
**.m1 = 0.25s
**.m2 = 0.25s
**.pDistribution = uniform(4, 6)
**.vDistribution = uniform(18, 20)
**.CW = 1.0
**.N = 3

[Config Config20]
description = Configuration with Strategy=1, N=3, lambda=1.25s, m1=0.25s, m2=0.25s, pDistribution = uniform(4, 6), vDistribution = uniform(18, 20)
**.Strategy = 1
**.lambda = 1.25s
**.m1 = 0.25s
**.m2 = 0.25s
**.pDistribution = uniform(4, 6)
**.vDistribution = uniform(18, 20)
**.CW = 1.0
**.N = 3

[Config Config21]
description = Configuration with Strategy=0, N=2, lambda=1.25s, m1=0.25s, m2=0.25s, pDistribution = uniform(4, 6), vDistribution = uniform(20, 22)
**.Strategy = 0
**.lambda = 1.25s
**.m1 = 0.25s
**.m2 = 0.25s
**.pDistribution = uniform(4, 6)
**.vDistribution = uniform(20, 22)
**.CW = 1.0
**.N = 2

[Config Config22]
description = Configuration with Strategy=1, N=2, lambda=1.25s, m1=0.25s, m2=0.25s, pDistribution = uniform(4, 6), vDistribution = uniform(20, 22)
**.Strategy = 1
**.lambda = 1.25s
**.m1 = 0.25s
**.m2 = 0.25s
**.pDistribution = uniform(4, 6)
**.vDistribution = uniform(20, 22)
**.CW = 1.0
**.N = 2

[Config Config23]
description = Configuration with Strategy=0, N=3, lambda=1.25s, m1=0.25s, m2=0.25s, pDistribution = uniform(4, 6), vDistribution = uniform(20, 22)
**.Strategy = 0
**.lambda = 1.25s
**.m1 = 0.25s
**.m2 = 0.25s
**.pDistribution = uniform(4, 6)
**.vDistribution = uniform(20, 22)
**.CW = 1.0
**.N = 3

[Config Config24]
description = Configuration with Strategy=1, N=3, lambda=1.25s, m1=0.25s, m2=0.25s, pDistribution = uniform(4, 6), vDistribution = uniform(20, 22)
**.Strategy = 1
**.lambda = 1.25s
**.m1 = 0.25s
**.m2 = 0.25s
**.pDistribution = uniform(4, 6)
**.vDistribution = uniform(20, 22)
**.CW = 1.0
**.N = 3

[Config Config25]
description = Configuration with Strategy=0, N=2, lambda=1.25s, m1=0.25s, m2=0.25s, pDistribution = uniform(8, 10), vDistribution = uniform(14, 16)
**.Strategy = 0
**.lambda = 1.25s
**.m1 = 0.25s
**.m2 = 0.25s
**.pDistribution = uniform(8, 10)
**.vDistribution = uniform(14, 16)
**.CW = 1.0
**.N = 2

[Config Config26]
description = Configuration with Strategy=1, N=2, lambda=1.25s, m1=0.25s, m2=0.25s, pDistribution = uniform(8, 10), vDistribution = uniform(14, 16)
**.Strategy = 1
**.lambda = 1.25s
**.m1 = 0.25s
**.m2 = 0.25s
**.pDistribution = uniform(8, 10)
**.vDistribution = uniform(14, 16)
**.CW = 1.0
**.N = 2

[Config Config27]
description = Configuration with Strategy=0, N=3, lambda=1.25s, m1=0.25s, m2=0.25s, pDistribution = uniform(8, 10), vDistribution = uniform(14, 16)
**.Strategy = 0
**.lambda = 1.25s
**.m1 = 0.25s
**.m2 = 0.25s
**.pDistribution = uniform(8, 10)
**.vDistribution = uniform(14, 16)
**.CW = 1.0
**.N = 3

[Config Config28]
description = Configuration with Strategy=1, N=3, lambda=1.25s, m1=0.25s, m2=0.25s, pDistribution = uniform(8, 10), vDistribution = uniform(14, 16)
**.Strategy = 1
**.lambda = 1.25s
**.m1 = 0.25s
**.m2 = 0.25s
**.pDistribution = uniform(8, 10)
**.vDistribution = uniform(14, 16)
**.CW = 1.0
**.N = 3

[Config Config29]
description = Configuration with Strategy=0, N=2, lambda=1.25s, m1=0.25s, m2=0.25s, pDistribution = uniform(8, 10), vDistribution = uniform(18, 20)
**.Strategy = 0
**.lambda = 1.25s
**.m1 = 0.25s
**.m2 = 0.25s
**.pDistribution = uniform(8, 10)
**.vDistribution = uniform(18, 20)
**.CW = 1.0
**.N = 2

[Config Config30]
description = Configuration with Strategy=1, N=2, lambda=1.25s, m1=0.25s, m2=0.25s, pDistribution = uniform(8, 10), vDistribution = uniform(18, 20)
**.Strategy = 1
**.lambda = 1.25s
**.m1 = 0.25s
**.m2 = 0.25s
**.pDistribution = uniform(8, 10)
**.vDistribution = uniform(18, 20)
**.CW = 1.0
**.N = 2

[Config Config31]
description = Configuration with Strategy=0, N=3, lambda=1.25s, m1=0.25s, m2=0.25s, pDistribution = uniform(8, 10), vDistribution = uniform(18, 20)
**.Strategy = 0
**.lambda = 1.25s
**.m1 = 0.25s
**.m2 = 0.25s
**.pDistribution = uniform(8, 10)
**.vDistribution = uniform(18, 20)
**.CW = 1.0
**.N = 3

[Config Config32]
description = Configuration with Strategy=1, N=3, lambda=1.25s, m1=0.25s, m2=0.25s, pDistribution = uniform(8, 10), vDistribution = uniform(18, 20)
**.Strategy = 1
**.lambda = 1.25s
**.m1 = 0.25s
**.m2 = 0.25s
**.pDistribution = uniform(8, 10)
**.vDistribution = uniform(18, 20)
**.CW = 1.0
**.N = 3

[Config Config33]
description = Configuration with Strategy=0, N=2, lambda=1.25s, m1=0.25s, m2=0.25s, pDistribution = uniform(8, 10), vDistribution = uniform(20, 22)
**.Strategy = 0
**.lambda = 1.25s
**.m1 = 0.25s
**.m2 = 0.25s
**.pDistribution = uniform(8, 10)
**.vDistribution = uniform(20, 22)
**.CW = 1.0
**.N = 2

[Config Config34]
description = Configuration with Strategy=1, N=2, lambda=1.25s, m1=0.25s, m2=0.25s, pDistribution = uniform(8, 10), vDistribution = uniform(20, 22)
**.Strategy = 1
**.lambda = 1.25s
**.m1 = 0.25s
**.m2 = 0.25s
**.pDistribution = uniform(8, 10)
**.vDistribution = uniform(20, 22)
**.CW = 1.0
**.N = 2

[Config Config35]
description = Configuration with Strategy=0, N=3, lambda=1.25s, m1=0.25s, m2=0.25s, pDistribution = uniform(8, 10), vDistribution = uniform(20, 22)
**.Strategy = 0
**.lambda = 1.25s
**.m1 = 0.25s
**.m2 = 0.25s
**.pDistribution = uniform(8, 10)
**.vDistribution = uniform(20, 22)
**.CW = 1.0
**.N = 3

[Config Config36]
description = Configuration with Strategy=1, N=3, lambda=1.25s, m1=0.25s, m2=0.25s, pDistribution = uniform(8, 10), vDistribution = uniform(20, 22)
**.Strategy = 1
**.lambda = 1.25s
**.m1 = 0.25s
**.m2 = 0.25s
**.pDistribution = uniform(8, 10)
**.vDistribution = uniform(20, 22)
**.CW = 1.0
**.N = 3

[Config Config37]
description = Configuration with Strategy=0, N=2, lambda=2s, m1=0.25s, m2=0.25s, pDistribution = uniform(1, 3), vDistribution = uniform(14, 16)
**.Strategy = 0
**.lambda = 2s
**.m1 = 0.25s
**.m2 = 0.25s
**.pDistribution = uniform(1, 3)
**.vDistribution = uniform(14, 16)
**.CW = 1.0
**.N = 2

[Config Config38]
description = Configuration with Strategy=1, N=2, lambda=2s, m1=0.25s, m2=0.25s, pDistribution = uniform(1, 3), vDistribution = uniform(14, 16)
**.Strategy = 1
**.lambda = 2s
**.m1 = 0.25s
**.m2 = 0.25s
**.pDistribution = uniform(1, 3)
**.vDistribution = uniform(14, 16)
**.CW = 1.0
**.N = 2

[Config Config39]
description = Configuration with Strategy=0, N=3, lambda=2s, m1=0.25s, m2=0.25s, pDistribution = uniform(1, 3), vDistribution = uniform(14, 16)
**.Strategy = 0
**.lambda = 2s
**.m1 = 0.25s
**.m2 = 0.25s
**.pDistribution = uniform(1, 3)
**.vDistribution = uniform(14, 16)
**.CW = 1.0
**.N = 3

[Config Config40]
description = Configuration with Strategy=1, N=3, lambda=2s, m1=0.25s, m2=0.25s, pDistribution = uniform(1, 3), vDistribution = uniform(14, 16)
**.Strategy = 1
**.lambda = 2s
**.m1 = 0.25s
**.m2 = 0.25s
**.pDistribution = uniform(1, 3)
**.vDistribution = uniform(14, 16)
**.CW = 1.0
**.N = 3

[Config Config41]
description = Configuration with Strategy=0, N=2, lambda=2s, m1=0.25s, m2=0.25s, pDistribution = uniform(1, 3), vDistribution = uniform(18, 20)
**.Strategy = 0
**.lambda = 2s
**.m1 = 0.25s
**.m2 = 0.25s
**.pDistribution = uniform(1, 3)
**.vDistribution = uniform(18, 20)
**.CW = 1.0
**.N = 2

[Config Config42]
description = Configuration with Strategy=1, N=2, lambda=2s, m1=0.25s, m2=0.25s, pDistribution = uniform(1, 3), vDistribution = uniform(18, 20)
**.Strategy = 1
**.lambda = 2s
**.m1 = 0.25s
**.m2 = 0.25s
**.pDistribution = uniform(1, 3)
**.vDistribution = uniform(18, 20)
**.CW = 1.0
**.N = 2

[Config Config43]
description = Configuration with Strategy=0, N=3, lambda=2s, m1=0.25s, m2=0.25s, pDistribution = uniform(1, 3), vDistribution = uniform(18, 20)
**.Strategy = 0
**.lambda = 2s
**.m1 = 0.25s
**.m2 = 0.25s
**.pDistribution = uniform(1, 3)
**.vDistribution = uniform(18, 20)
**.CW = 1.0
**.N = 3

[Config Config44]
description = Configuration with Strategy=1, N=3, lambda=2s, m1=0.25s, m2=0.25s, pDistribution = uniform(1, 3), vDistribution = uniform(18, 20)
**.Strategy = 1
**.lambda = 2s
**.m1 = 0.25s
**.m2 = 0.25s
**.pDistribution = uniform(1, 3)
**.vDistribution = uniform(18, 20)
**.CW = 1.0
**.N = 3

[Config Config45]
description = Configuration with Strategy=0, N=2, lambda=2s, m1=0.25s, m2=0.25s, pDistribution = uniform(1, 3), vDistribution = uniform(20, 22)
**.Strategy = 0
**.lambda = 2s
**.m1 = 0.25s
**.m2 = 0.25s
**.pDistribution = uniform(1, 3)
**.vDistribution = uniform(20, 22)
**.CW = 1.0
**.N = 2

[Config Config46]
description = Configuration with Strategy=1, N=2, lambda=2s, m1=0.25s, m2=0.25s, pDistribution = uniform(1, 3), vDistribution = uniform(20, 22)
**.Strategy = 1
**.lambda = 2s
**.m1 = 0.25s
**.m2 = 0.25s
**.pDistribution = uniform(1, 3)
**.vDistribution = uniform(20, 22)
**.CW = 1.0
**.N = 2

[Config Config47]
description = Configuration with Strategy=0, N=3, lambda=2s, m1=0.25s, m2=0.25s, pDistribution = uniform(1, 3), vDistribution = uniform(20, 22)
**.Strategy = 0
**.lambda = 2s
**.m1 = 0.25s
**.m2 = 0.25s
**.pDistribution = uniform(1, 3)
**.vDistribution = uniform(20, 22)
**.CW = 1.0
**.N = 3

[Config Config48]
description = Configuration with Strategy=1, N=3, lambda=2s, m1=0.25s, m2=0.25s, pDistribution = uniform(1, 3), vDistribution = uniform(20, 22)
**.Strategy = 1
**.lambda = 2s
**.m1 = 0.25s
**.m2 = 0.25s
**.pDistribution = uniform(1, 3)
**.vDistribution = uniform(20, 22)
**.CW = 1.0
**.N = 3

[Config Config49]
description = Configuration with Strategy=0, N=2, lambda=2s, m1=0.25s, m2=0.25s, pDistribution = uniform(4, 6), vDistribution = uniform(14, 16)
**.Strategy = 0
**.lambda = 2s
**.m1 = 0.25s
**.m2 = 0.25s
**.pDistribution = uniform(4, 6)
**.vDistribution = uniform(14, 16)
**.CW = 1.0
**.N = 2

[Config Config50]
description = Configuration with Strategy=1, N=2, lambda=2s, m1=0.25s, m2=0.25s, pDistribution = uniform(4, 6), vDistribution = uniform(14, 16)
**.Strategy = 1
**.lambda = 2s
**.m1 = 0.25s
**.m2 = 0.25s
**.pDistribution = uniform(4, 6)
**.vDistribution = uniform(14, 16)
**.CW = 1.0
**.N = 2

[Config Config51]
description = Configuration with Strategy=0, N=3, lambda=2s, m1=0.25s, m2=0.25s, pDistribution = uniform(4, 6), vDistribution = uniform(14, 16)
**.Strategy = 0
**.lambda = 2s
**.m1 = 0.25s
**.m2 = 0.25s
**.pDistribution = uniform(4, 6)
**.vDistribution = uniform(14, 16)
**.CW = 1.0
**.N = 3

[Config Config52]
description = Configuration with Strategy=1, N=3, lambda=2s, m1=0.25s, m2=0.25s, pDistribution = uniform(4, 6), vDistribution = uniform(14, 16)
**.Strategy = 1
**.lambda = 2s
**.m1 = 0.25s
**.m2 = 0.25s
**.pDistribution = uniform(4, 6)
**.vDistribution = uniform(14, 16)
**.CW = 1.0
**.N = 3

[Config Config53]
description = Configuration with Strategy=0, N=2, lambda=2s, m1=0.25s, m2=0.25s, pDistribution = uniform(4, 6), vDistribution = uniform(18, 20)
**.Strategy = 0
**.lambda = 2s
**.m1 = 0.25s
**.m2 = 0.25s
**.pDistribution = uniform(4, 6)
**.vDistribution = uniform(18, 20)
**.CW = 1.0
**.N = 2

[Config Config54]
description = Configuration with Strategy=1, N=2, lambda=2s, m1=0.25s, m2=0.25s, pDistribution = uniform(4, 6), vDistribution = uniform(18, 20)
**.Strategy = 1
**.lambda = 2s
**.m1 = 0.25s
**.m2 = 0.25s
**.pDistribution = uniform(4, 6)
**.vDistribution = uniform(18, 20)
**.CW = 1.0
**.N = 2

[Config Config55]
description = Configuration with Strategy=0, N=3, lambda=2s, m1=0.25s, m2=0.25s, pDistribution = uniform(4, 6), vDistribution = uniform(18, 20)
**.Strategy = 0
**.lambda = 2s
**.m1 = 0.25s
**.m2 = 0.25s
**.pDistribution = uniform(4, 6)
**.vDistribution = uniform(18, 20)
**.CW = 1.0
**.N = 3

[Config Config56]
description = Configuration with Strategy=1, N=3, lambda=2s, m1=0.25s, m2=0.25s, pDistribution = uniform(4, 6), vDistribution = uniform(18, 20)
**.Strategy = 1
**.lambda = 2s
**.m1 = 0.25s
**.m2 = 0.25s
**.pDistribution = uniform(4, 6)
**.vDistribution = uniform(18, 20)
**.CW = 1.0
**.N = 3

[Config Config57]
description = Configuration with Strategy=0, N=2, lambda=2s, m1=0.25s, m2=0.25s, pDistribution = uniform(4, 6), vDistribution = uniform(20, 22)
**.Strategy = 0
**.lambda = 2s
**.m1 = 0.25s
**.m2 = 0.25s
**.pDistribution = uniform(4, 6)
**.vDistribution = uniform(20, 22)
**.CW = 1.0
**.N = 2

[Config Config58]
description = Configuration with Strategy=1, N=2, lambda=2s, m1=0.25s, m2=0.25s, pDistribution = uniform(4, 6), vDistribution = uniform(20, 22)
**.Strategy = 1
**.lambda = 2s
**.m1 = 0.25s
**.m2 = 0.25s
**.pDistribution = uniform(4, 6)
**.vDistribution = uniform(20, 22)
**.CW = 1.0
**.N = 2

[Config Config59]
description = Configuration with Strategy=0, N=3, lambda=2s, m1=0.25s, m2=0.25s, pDistribution = uniform(4, 6), vDistribution = uniform(20, 22)
**.Strategy = 0
**.lambda = 2s
**.m1 = 0.25s
**.m2 = 0.25s
**.pDistribution = uniform(4, 6)
**.vDistribution = uniform(20, 22)
**.CW = 1.0
**.N = 3

[Config Config60]
description = Configuration with Strategy=1, N=3, lambda=2s, m1=0.25s, m2=0.25s, pDistribution = uniform(4, 6), vDistribution = uniform(20, 22)
**.Strategy = 1
**.lambda = 2s
**.m1 = 0.25s
**.m2 = 0.25s
**.pDistribution = uniform(4, 6)
**.vDistribution = uniform(20, 22)
**.CW = 1.0
**.N = 3

[Config Config61]
description = Configuration with Strategy=0, N=2, lambda=2s, m1=0.25s, m2=0.25s, pDistribution = uniform(8, 10), vDistribution = uniform(14, 16)
**.Strategy = 0
**.lambda = 2s
**.m1 = 0.25s
**.m2 = 0.25s
**.pDistribution = uniform(8, 10)
**.vDistribution = uniform(14, 16)
**.CW = 1.0
**.N = 2

[Config Config62]
description = Configuration with Strategy=1, N=2, lambda=2s, m1=0.25s, m2=0.25s, pDistribution = uniform(8, 10), vDistribution = uniform(14, 16)
**.Strategy = 1
**.lambda = 2s
**.m1 = 0.25s
**.m2 = 0.25s
**.pDistribution = uniform(8, 10)
**.vDistribution = uniform(14, 16)
**.CW = 1.0
**.N = 2

[Config Config63]
description = Configuration with Strategy=0, N=3, lambda=2s, m1=0.25s, m2=0.25s, pDistribution = uniform(8, 10), vDistribution = uniform(14, 16)
**.Strategy = 0
**.lambda = 2s
**.m1 = 0.25s
**.m2 = 0.25s
**.pDistribution = uniform(8, 10)
**.vDistribution = uniform(14, 16)
**.CW = 1.0
**.N = 3

[Config Config64]
description = Configuration with Strategy=1, N=3, lambda=2s, m1=0.25s, m2=0.25s, pDistribution = uniform(8, 10), vDistribution = uniform(14, 16)
**.Strategy = 1
**.lambda = 2s
**.m1 = 0.25s
**.m2 = 0.25s
**.pDistribution = uniform(8, 10)
**.vDistribution = uniform(14, 16)
**.CW = 1.0
**.N = 3

[Config Config65]
description = Configuration with Strategy=0, N=2, lambda=2s, m1=0.25s, m2=0.25s, pDistribution = uniform(8, 10), vDistribution = uniform(18, 20)
**.Strategy = 0
**.lambda = 2s
**.m1 = 0.25s
**.m2 = 0.25s
**.pDistribution = uniform(8, 10)
**.vDistribution = uniform(18, 20)
**.CW = 1.0
**.N = 2

[Config Config66]
description = Configuration with Strategy=1, N=2, lambda=2s, m1=0.25s, m2=0.25s, pDistribution = uniform(8, 10), vDistribution = uniform(18, 20)
**.Strategy = 1
**.lambda = 2s
**.m1 = 0.25s
**.m2 = 0.25s
**.pDistribution = uniform(8, 10)
**.vDistribution = uniform(18, 20)
**.CW = 1.0
**.N = 2

[Config Config67]
description = Configuration with Strategy=0, N=3, lambda=2s, m1=0.25s, m2=0.25s, pDistribution = uniform(8, 10), vDistribution = uniform(18, 20)
**.Strategy = 0
**.lambda = 2s
**.m1 = 0.25s
**.m2 = 0.25s
**.pDistribution = uniform(8, 10)
**.vDistribution = uniform(18, 20)
**.CW = 1.0
**.N = 3

[Config Config68]
description = Configuration with Strategy=1, N=3, lambda=2s, m1=0.25s, m2=0.25s, pDistribution = uniform(8, 10), vDistribution = uniform(18, 20)
**.Strategy = 1
**.lambda = 2s
**.m1 = 0.25s
**.m2 = 0.25s
**.pDistribution = uniform(8, 10)
**.vDistribution = uniform(18, 20)
**.CW = 1.0
**.N = 3

[Config Config69]
description = Configuration with Strategy=0, N=2, lambda=2s, m1=0.25s, m2=0.25s, pDistribution = uniform(8, 10), vDistribution = uniform(20, 22)
**.Strategy = 0
**.lambda = 2s
**.m1 = 0.25s
**.m2 = 0.25s
**.pDistribution = uniform(8, 10)
**.vDistribution = uniform(20, 22)
**.CW = 1.0
**.N = 2

[Config Config70]
description = Configuration with Strategy=1, N=2, lambda=2s, m1=0.25s, m2=0.25s, pDistribution = uniform(8, 10), vDistribution = uniform(20, 22)
**.Strategy = 1
**.lambda = 2s
**.m1 = 0.25s
**.m2 = 0.25s
**.pDistribution = uniform(8, 10)
**.vDistribution = uniform(20, 22)
**.CW = 1.0
**.N = 2

[Config Config71]
description = Configuration with Strategy=0, N=3, lambda=2s, m1=0.25s, m2=0.25s, pDistribution = uniform(8, 10), vDistribution = uniform(20, 22)
**.Strategy = 0
**.lambda = 2s
**.m1 = 0.25s
**.m2 = 0.25s
**.pDistribution = uniform(8, 10)
**.vDistribution = uniform(20, 22)
**.CW = 1.0
**.N = 3

[Config Config72]
description = Configuration with Strategy=1, N=3, lambda=2s, m1=0.25s, m2=0.25s, pDistribution = uniform(8, 10), vDistribution = uniform(20, 22)
**.Strategy = 1
**.lambda = 2s
**.m1 = 0.25s
**.m2 = 0.25s
**.pDistribution = uniform(8, 10)
**.vDistribution = uniform(20, 22)
**.CW = 1.0
**.N = 3

