[General]
network = TandemQueueSystem
sim-time-limit = 10000s
warmup-period = 0s
repeat = 20
output-vector-file = results.vec
output-scalar-file = results.sca
*.collector.collect = true
*.collector.vector-recording = true
*.collector.scalar-recording = true
*.collector.interval = 1s


[Config Config2]
description = Configuration with Strategy=1, N=3, lambda=1.25s, m1=0.4s, m2=0.4s, pDistribution = uniform(8, 10), vDistribution = uniform(20, 22)
**.Strategy = 1
**.lambda = 1.25s
**.m1 = 0.4s
**.m2 = 0.4s
**.pDistribution = uniform(8, 10)
**.vDistribution = uniform(20, 22)
**.CW = 1.0
**.N = 3

[Config Config4]
description = Configuration with Strategy=1, N=3, lambda=1.25s, m1=0.4s, m2=0.3s, pDistribution = uniform(8, 10), vDistribution = uniform(20, 22)
**.Strategy = 1
**.lambda = 1.25s
**.m1 = 0.4s
**.m2 = 0.3s
**.pDistribution = uniform(8, 10)
**.vDistribution = uniform(20, 22)
**.CW = 1.0
**.N = 3

[Config Config6]
description = Configuration with Strategy=1, N=3, lambda=1.25s, m1=0.4s, m2=0.25s, pDistribution = uniform(8, 10), vDistribution = uniform(20, 22)
**.Strategy = 1
**.lambda = 1.25s
**.m1 = 0.4s
**.m2 = 0.25s
**.pDistribution = uniform(8, 10)
**.vDistribution = uniform(20, 22)
**.CW = 1.0
**.N = 3

[Config Config8]
description = Configuration with Strategy=1, N=3, lambda=1.25s, m1=0.4s, m2=0.2s, pDistribution = uniform(8, 10), vDistribution = uniform(20, 22)
**.Strategy = 1
**.lambda = 1.25s
**.m1 = 0.4s
**.m2 = 0.2s
**.pDistribution = uniform(8, 10)
**.vDistribution = uniform(20, 22)
**.CW = 1.0
**.N = 3

[Config Config10]
description = Configuration with Strategy=1, N=3, lambda=1.25s, m1=0.3s, m2=0.4s, pDistribution = uniform(8, 10), vDistribution = uniform(20, 22)
**.Strategy = 1
**.lambda = 1.25s
**.m1 = 0.3s
**.m2 = 0.4s
**.pDistribution = uniform(8, 10)
**.vDistribution = uniform(20, 22)
**.CW = 1.0
**.N = 3

