[General]
network = TandemQueueSystem
sim-time-limit = 100000s
warmup-period = 1000s
repeat = 20
output-vector-file = results.vec
output-scalar-file = results.sca
*.collector.collect = true
*.collector.vector-recording = true
*.collector.scalar-recording = true
*.collector.interval = 1s

[Config Config1]
description = Configurazione con lambda=2.0s, m1=0.4s, m2=0.4s
**.lambda = 2.0s
**.m1 = 0.4s
**.m2 = 0.4s
**.pdistribution = uniform(1, 3)
**.vdistribution = uniform(14, 16)
**.cw = 1.0
**.n = 1

[Config Config2]
description = Configurazione con lambda=2.0s, m1=0.4s, m2=0.4s
**.lambda = 2.0s
**.m1 = 0.4s
**.m2 = 0.4s
**.pdistribution = uniform(1, 3)
**.vdistribution = uniform(14, 16)
**.cw = 1.0
**.n = 2

[Config Config3]
description = Configurazione con lambda=2.0s, m1=0.4s, m2=0.4s
**.lambda = 2.0s
**.m1 = 0.4s
**.m2 = 0.4s
**.pdistribution = uniform(1, 3)
**.vdistribution = uniform(14, 16)
**.cw = 1.0
**.n = 3

[Config Config4]
description = Configurazione con lambda=2.0s, m1=0.4s, m2=0.4s
**.lambda = 2.0s
**.m1 = 0.4s
**.m2 = 0.4s
**.pdistribution = uniform(1, 3)
**.vdistribution = uniform(14, 16)
**.cw = 1.0
**.n = 4

[Config Config5]
description = Configurazione con lambda=2.0s, m1=0.4s, m2=0.4s
**.lambda = 2.0s
**.m1 = 0.4s
**.m2 = 0.4s
**.pdistribution = uniform(1, 3)
**.vdistribution = uniform(14, 16)
**.cw = 1.0
**.n = 5

[Config Config6]
description = Configurazione con lambda=2.0s, m1=0.4s, m2=0.4s
**.lambda = 2.0s
**.m1 = 0.4s
**.m2 = 0.4s
**.pdistribution = uniform(1, 3)
**.vdistribution = uniform(18, 20)
**.cw = 1.0
**.n = 1

[Config Config7]
description = Configurazione con lambda=2.0s, m1=0.4s, m2=0.4s
**.lambda = 2.0s
**.m1 = 0.4s
**.m2 = 0.4s
**.pdistribution = uniform(1, 3)
**.vdistribution = uniform(18, 20)
**.cw = 1.0
**.n = 2

[Config Config8]
description = Configurazione con lambda=2.0s, m1=0.4s, m2=0.4s
**.lambda = 2.0s
**.m1 = 0.4s
**.m2 = 0.4s
**.pdistribution = uniform(1, 3)
**.vdistribution = uniform(18, 20)
**.cw = 1.0
**.n = 3

[Config Config9]
description = Configurazione con lambda=2.0s, m1=0.4s, m2=0.4s
**.lambda = 2.0s
**.m1 = 0.4s
**.m2 = 0.4s
**.pdistribution = uniform(1, 3)
**.vdistribution = uniform(18, 20)
**.cw = 1.0
**.n = 4

[Config Config10]
description = Configurazione con lambda=2.0s, m1=0.4s, m2=0.4s
**.lambda = 2.0s
**.m1 = 0.4s
**.m2 = 0.4s
**.pdistribution = uniform(1, 3)
**.vdistribution = uniform(18, 20)
**.cw = 1.0
**.n = 5

[Config Config11]
description = Configurazione con lambda=2.0s, m1=0.4s, m2=0.4s
**.lambda = 2.0s
**.m1 = 0.4s
**.m2 = 0.4s
**.pdistribution = uniform(1, 3)
**.vdistribution = uniform(20, 22)
**.cw = 1.0
**.n = 1

[Config Config12]
description = Configurazione con lambda=2.0s, m1=0.4s, m2=0.4s
**.lambda = 2.0s
**.m1 = 0.4s
**.m2 = 0.4s
**.pdistribution = uniform(1, 3)
**.vdistribution = uniform(20, 22)
**.cw = 1.0
**.n = 2

[Config Config13]
description = Configurazione con lambda=2.0s, m1=0.4s, m2=0.4s
**.lambda = 2.0s
**.m1 = 0.4s
**.m2 = 0.4s
**.pdistribution = uniform(1, 3)
**.vdistribution = uniform(20, 22)
**.cw = 1.0
**.n = 3

[Config Config14]
description = Configurazione con lambda=2.0s, m1=0.4s, m2=0.4s
**.lambda = 2.0s
**.m1 = 0.4s
**.m2 = 0.4s
**.pdistribution = uniform(1, 3)
**.vdistribution = uniform(20, 22)
**.cw = 1.0
**.n = 4

[Config Config15]
description = Configurazione con lambda=2.0s, m1=0.4s, m2=0.4s
**.lambda = 2.0s
**.m1 = 0.4s
**.m2 = 0.4s
**.pdistribution = uniform(1, 3)
**.vdistribution = uniform(20, 22)
**.cw = 1.0
**.n = 5

[Config Config16]
description = Configurazione con lambda=2.0s, m1=0.4s, m2=0.4s
**.lambda = 2.0s
**.m1 = 0.4s
**.m2 = 0.4s
**.pdistribution = uniform(4, 6)
**.vdistribution = uniform(14, 16)
**.cw = 1.0
**.n = 1

[Config Config17]
description = Configurazione con lambda=2.0s, m1=0.4s, m2=0.4s
**.lambda = 2.0s
**.m1 = 0.4s
**.m2 = 0.4s
**.pdistribution = uniform(4, 6)
**.vdistribution = uniform(14, 16)
**.cw = 1.0
**.n = 2

[Config Config18]
description = Configurazione con lambda=2.0s, m1=0.4s, m2=0.4s
**.lambda = 2.0s
**.m1 = 0.4s
**.m2 = 0.4s
**.pdistribution = uniform(4, 6)
**.vdistribution = uniform(14, 16)
**.cw = 1.0
**.n = 3

[Config Config19]
description = Configurazione con lambda=2.0s, m1=0.4s, m2=0.4s
**.lambda = 2.0s
**.m1 = 0.4s
**.m2 = 0.4s
**.pdistribution = uniform(4, 6)
**.vdistribution = uniform(14, 16)
**.cw = 1.0
**.n = 4

[Config Config20]
description = Configurazione con lambda=2.0s, m1=0.4s, m2=0.4s
**.lambda = 2.0s
**.m1 = 0.4s
**.m2 = 0.4s
**.pdistribution = uniform(4, 6)
**.vdistribution = uniform(14, 16)
**.cw = 1.0
**.n = 5

[Config Config21]
description = Configurazione con lambda=2.0s, m1=0.4s, m2=0.4s
**.lambda = 2.0s
**.m1 = 0.4s
**.m2 = 0.4s
**.pdistribution = uniform(4, 6)
**.vdistribution = uniform(18, 20)
**.cw = 1.0
**.n = 1

[Config Config22]
description = Configurazione con lambda=2.0s, m1=0.4s, m2=0.4s
**.lambda = 2.0s
**.m1 = 0.4s
**.m2 = 0.4s
**.pdistribution = uniform(4, 6)
**.vdistribution = uniform(18, 20)
**.cw = 1.0
**.n = 2

[Config Config23]
description = Configurazione con lambda=2.0s, m1=0.4s, m2=0.4s
**.lambda = 2.0s
**.m1 = 0.4s
**.m2 = 0.4s
**.pdistribution = uniform(4, 6)
**.vdistribution = uniform(18, 20)
**.cw = 1.0
**.n = 3

[Config Config24]
description = Configurazione con lambda=2.0s, m1=0.4s, m2=0.4s
**.lambda = 2.0s
**.m1 = 0.4s
**.m2 = 0.4s
**.pdistribution = uniform(4, 6)
**.vdistribution = uniform(18, 20)
**.cw = 1.0
**.n = 4

[Config Config25]
description = Configurazione con lambda=2.0s, m1=0.4s, m2=0.4s
**.lambda = 2.0s
**.m1 = 0.4s
**.m2 = 0.4s
**.pdistribution = uniform(4, 6)
**.vdistribution = uniform(18, 20)
**.cw = 1.0
**.n = 5

[Config Config26]
description = Configurazione con lambda=2.0s, m1=0.4s, m2=0.4s
**.lambda = 2.0s
**.m1 = 0.4s
**.m2 = 0.4s
**.pdistribution = uniform(4, 6)
**.vdistribution = uniform(20, 22)
**.cw = 1.0
**.n = 1

[Config Config27]
description = Configurazione con lambda=2.0s, m1=0.4s, m2=0.4s
**.lambda = 2.0s
**.m1 = 0.4s
**.m2 = 0.4s
**.pdistribution = uniform(4, 6)
**.vdistribution = uniform(20, 22)
**.cw = 1.0
**.n = 2

[Config Config28]
description = Configurazione con lambda=2.0s, m1=0.4s, m2=0.4s
**.lambda = 2.0s
**.m1 = 0.4s
**.m2 = 0.4s
**.pdistribution = uniform(4, 6)
**.vdistribution = uniform(20, 22)
**.cw = 1.0
**.n = 3

[Config Config29]
description = Configurazione con lambda=2.0s, m1=0.4s, m2=0.4s
**.lambda = 2.0s
**.m1 = 0.4s
**.m2 = 0.4s
**.pdistribution = uniform(4, 6)
**.vdistribution = uniform(20, 22)
**.cw = 1.0
**.n = 4

[Config Config30]
description = Configurazione con lambda=2.0s, m1=0.4s, m2=0.4s
**.lambda = 2.0s
**.m1 = 0.4s
**.m2 = 0.4s
**.pdistribution = uniform(4, 6)
**.vdistribution = uniform(20, 22)
**.cw = 1.0
**.n = 5

[Config Config31]
description = Configurazione con lambda=2.0s, m1=0.4s, m2=0.4s
**.lambda = 2.0s
**.m1 = 0.4s
**.m2 = 0.4s
**.pdistribution = uniform(8, 10)
**.vdistribution = uniform(14, 16)
**.cw = 1.0
**.n = 1

[Config Config32]
description = Configurazione con lambda=2.0s, m1=0.4s, m2=0.4s
**.lambda = 2.0s
**.m1 = 0.4s
**.m2 = 0.4s
**.pdistribution = uniform(8, 10)
**.vdistribution = uniform(14, 16)
**.cw = 1.0
**.n = 2

[Config Config33]
description = Configurazione con lambda=2.0s, m1=0.4s, m2=0.4s
**.lambda = 2.0s
**.m1 = 0.4s
**.m2 = 0.4s
**.pdistribution = uniform(8, 10)
**.vdistribution = uniform(14, 16)
**.cw = 1.0
**.n = 3

[Config Config34]
description = Configurazione con lambda=2.0s, m1=0.4s, m2=0.4s
**.lambda = 2.0s
**.m1 = 0.4s
**.m2 = 0.4s
**.pdistribution = uniform(8, 10)
**.vdistribution = uniform(14, 16)
**.cw = 1.0
**.n = 4

[Config Config35]
description = Configurazione con lambda=2.0s, m1=0.4s, m2=0.4s
**.lambda = 2.0s
**.m1 = 0.4s
**.m2 = 0.4s
**.pdistribution = uniform(8, 10)
**.vdistribution = uniform(14, 16)
**.cw = 1.0
**.n = 5

[Config Config36]
description = Configurazione con lambda=2.0s, m1=0.4s, m2=0.4s
**.lambda = 2.0s
**.m1 = 0.4s
**.m2 = 0.4s
**.pdistribution = uniform(8, 10)
**.vdistribution = uniform(18, 20)
**.cw = 1.0
**.n = 1

[Config Config37]
description = Configurazione con lambda=2.0s, m1=0.4s, m2=0.4s
**.lambda = 2.0s
**.m1 = 0.4s
**.m2 = 0.4s
**.pdistribution = uniform(8, 10)
**.vdistribution = uniform(18, 20)
**.cw = 1.0
**.n = 2

[Config Config38]
description = Configurazione con lambda=2.0s, m1=0.4s, m2=0.4s
**.lambda = 2.0s
**.m1 = 0.4s
**.m2 = 0.4s
**.pdistribution = uniform(8, 10)
**.vdistribution = uniform(18, 20)
**.cw = 1.0
**.n = 3

[Config Config39]
description = Configurazione con lambda=2.0s, m1=0.4s, m2=0.4s
**.lambda = 2.0s
**.m1 = 0.4s
**.m2 = 0.4s
**.pdistribution = uniform(8, 10)
**.vdistribution = uniform(18, 20)
**.cw = 1.0
**.n = 4

[Config Config40]
description = Configurazione con lambda=2.0s, m1=0.4s, m2=0.4s
**.lambda = 2.0s
**.m1 = 0.4s
**.m2 = 0.4s
**.pdistribution = uniform(8, 10)
**.vdistribution = uniform(18, 20)
**.cw = 1.0
**.n = 5

[Config Config41]
description = Configurazione con lambda=2.0s, m1=0.4s, m2=0.4s
**.lambda = 2.0s
**.m1 = 0.4s
**.m2 = 0.4s
**.pdistribution = uniform(8, 10)
**.vdistribution = uniform(20, 22)
**.cw = 1.0
**.n = 1

[Config Config42]
description = Configurazione con lambda=2.0s, m1=0.4s, m2=0.4s
**.lambda = 2.0s
**.m1 = 0.4s
**.m2 = 0.4s
**.pdistribution = uniform(8, 10)
**.vdistribution = uniform(20, 22)
**.cw = 1.0
**.n = 2

[Config Config43]
description = Configurazione con lambda=2.0s, m1=0.4s, m2=0.4s
**.lambda = 2.0s
**.m1 = 0.4s
**.m2 = 0.4s
**.pdistribution = uniform(8, 10)
**.vdistribution = uniform(20, 22)
**.cw = 1.0
**.n = 3

[Config Config44]
description = Configurazione con lambda=2.0s, m1=0.4s, m2=0.4s
**.lambda = 2.0s
**.m1 = 0.4s
**.m2 = 0.4s
**.pdistribution = uniform(8, 10)
**.vdistribution = uniform(20, 22)
**.cw = 1.0
**.n = 4

[Config Config45]
description = Configurazione con lambda=2.0s, m1=0.4s, m2=0.4s
**.lambda = 2.0s
**.m1 = 0.4s
**.m2 = 0.4s
**.pdistribution = uniform(8, 10)
**.vdistribution = uniform(20, 22)
**.cw = 1.0
**.n = 5

[Config Config46]
description = Configurazione con lambda=2.0s, m1=0.4s, m2=0.3s
**.lambda = 2.0s
**.m1 = 0.4s
**.m2 = 0.3s
**.pdistribution = uniform(1, 3)
**.vdistribution = uniform(14, 16)
**.cw = 1.0
**.n = 1

[Config Config47]
description = Configurazione con lambda=2.0s, m1=0.4s, m2=0.3s
**.lambda = 2.0s
**.m1 = 0.4s
**.m2 = 0.3s
**.pdistribution = uniform(1, 3)
**.vdistribution = uniform(14, 16)
**.cw = 1.0
**.n = 2

[Config Config48]
description = Configurazione con lambda=2.0s, m1=0.4s, m2=0.3s
**.lambda = 2.0s
**.m1 = 0.4s
**.m2 = 0.3s
**.pdistribution = uniform(1, 3)
**.vdistribution = uniform(14, 16)
**.cw = 1.0
**.n = 3

[Config Config49]
description = Configurazione con lambda=2.0s, m1=0.4s, m2=0.3s
**.lambda = 2.0s
**.m1 = 0.4s
**.m2 = 0.3s
**.pdistribution = uniform(1, 3)
**.vdistribution = uniform(14, 16)
**.cw = 1.0
**.n = 4

[Config Config50]
description = Configurazione con lambda=2.0s, m1=0.4s, m2=0.3s
**.lambda = 2.0s
**.m1 = 0.4s
**.m2 = 0.3s
**.pdistribution = uniform(1, 3)
**.vdistribution = uniform(14, 16)
**.cw = 1.0
**.n = 5

[Config Config51]
description = Configurazione con lambda=2.0s, m1=0.4s, m2=0.3s
**.lambda = 2.0s
**.m1 = 0.4s
**.m2 = 0.3s
**.pdistribution = uniform(1, 3)
**.vdistribution = uniform(18, 20)
**.cw = 1.0
**.n = 1

[Config Config52]
description = Configurazione con lambda=2.0s, m1=0.4s, m2=0.3s
**.lambda = 2.0s
**.m1 = 0.4s
**.m2 = 0.3s
**.pdistribution = uniform(1, 3)
**.vdistribution = uniform(18, 20)
**.cw = 1.0
**.n = 2

[Config Config53]
description = Configurazione con lambda=2.0s, m1=0.4s, m2=0.3s
**.lambda = 2.0s
**.m1 = 0.4s
**.m2 = 0.3s
**.pdistribution = uniform(1, 3)
**.vdistribution = uniform(18, 20)
**.cw = 1.0
**.n = 3

[Config Config54]
description = Configurazione con lambda=2.0s, m1=0.4s, m2=0.3s
**.lambda = 2.0s
**.m1 = 0.4s
**.m2 = 0.3s
**.pdistribution = uniform(1, 3)
**.vdistribution = uniform(18, 20)
**.cw = 1.0
**.n = 4

[Config Config55]
description = Configurazione con lambda=2.0s, m1=0.4s, m2=0.3s
**.lambda = 2.0s
**.m1 = 0.4s
**.m2 = 0.3s
**.pdistribution = uniform(1, 3)
**.vdistribution = uniform(18, 20)
**.cw = 1.0
**.n = 5

[Config Config56]
description = Configurazione con lambda=2.0s, m1=0.4s, m2=0.3s
**.lambda = 2.0s
**.m1 = 0.4s
**.m2 = 0.3s
**.pdistribution = uniform(1, 3)
**.vdistribution = uniform(20, 22)
**.cw = 1.0
**.n = 1

[Config Config57]
description = Configurazione con lambda=2.0s, m1=0.4s, m2=0.3s
**.lambda = 2.0s
**.m1 = 0.4s
**.m2 = 0.3s
**.pdistribution = uniform(1, 3)
**.vdistribution = uniform(20, 22)
**.cw = 1.0
**.n = 2

[Config Config58]
description = Configurazione con lambda=2.0s, m1=0.4s, m2=0.3s
**.lambda = 2.0s
**.m1 = 0.4s
**.m2 = 0.3s
**.pdistribution = uniform(1, 3)
**.vdistribution = uniform(20, 22)
**.cw = 1.0
**.n = 3

[Config Config59]
description = Configurazione con lambda=2.0s, m1=0.4s, m2=0.3s
**.lambda = 2.0s
**.m1 = 0.4s
**.m2 = 0.3s
**.pdistribution = uniform(1, 3)
**.vdistribution = uniform(20, 22)
**.cw = 1.0
**.n = 4

[Config Config60]
description = Configurazione con lambda=2.0s, m1=0.4s, m2=0.3s
**.lambda = 2.0s
**.m1 = 0.4s
**.m2 = 0.3s
**.pdistribution = uniform(1, 3)
**.vdistribution = uniform(20, 22)
**.cw = 1.0
**.n = 5

[Config Config61]
description = Configurazione con lambda=2.0s, m1=0.4s, m2=0.3s
**.lambda = 2.0s
**.m1 = 0.4s
**.m2 = 0.3s
**.pdistribution = uniform(4, 6)
**.vdistribution = uniform(14, 16)
**.cw = 1.0
**.n = 1

[Config Config62]
description = Configurazione con lambda=2.0s, m1=0.4s, m2=0.3s
**.lambda = 2.0s
**.m1 = 0.4s
**.m2 = 0.3s
**.pdistribution = uniform(4, 6)
**.vdistribution = uniform(14, 16)
**.cw = 1.0
**.n = 2

[Config Config63]
description = Configurazione con lambda=2.0s, m1=0.4s, m2=0.3s
**.lambda = 2.0s
**.m1 = 0.4s
**.m2 = 0.3s
**.pdistribution = uniform(4, 6)
**.vdistribution = uniform(14, 16)
**.cw = 1.0
**.n = 3

[Config Config64]
description = Configurazione con lambda=2.0s, m1=0.4s, m2=0.3s
**.lambda = 2.0s
**.m1 = 0.4s
**.m2 = 0.3s
**.pdistribution = uniform(4, 6)
**.vdistribution = uniform(14, 16)
**.cw = 1.0
**.n = 4

[Config Config65]
description = Configurazione con lambda=2.0s, m1=0.4s, m2=0.3s
**.lambda = 2.0s
**.m1 = 0.4s
**.m2 = 0.3s
**.pdistribution = uniform(4, 6)
**.vdistribution = uniform(14, 16)
**.cw = 1.0
**.n = 5

[Config Config66]
description = Configurazione con lambda=2.0s, m1=0.4s, m2=0.3s
**.lambda = 2.0s
**.m1 = 0.4s
**.m2 = 0.3s
**.pdistribution = uniform(4, 6)
**.vdistribution = uniform(18, 20)
**.cw = 1.0
**.n = 1

[Config Config67]
description = Configurazione con lambda=2.0s, m1=0.4s, m2=0.3s
**.lambda = 2.0s
**.m1 = 0.4s
**.m2 = 0.3s
**.pdistribution = uniform(4, 6)
**.vdistribution = uniform(18, 20)
**.cw = 1.0
**.n = 2

[Config Config68]
description = Configurazione con lambda=2.0s, m1=0.4s, m2=0.3s
**.lambda = 2.0s
**.m1 = 0.4s
**.m2 = 0.3s
**.pdistribution = uniform(4, 6)
**.vdistribution = uniform(18, 20)
**.cw = 1.0
**.n = 3

[Config Config69]
description = Configurazione con lambda=2.0s, m1=0.4s, m2=0.3s
**.lambda = 2.0s
**.m1 = 0.4s
**.m2 = 0.3s
**.pdistribution = uniform(4, 6)
**.vdistribution = uniform(18, 20)
**.cw = 1.0
**.n = 4

[Config Config70]
description = Configurazione con lambda=2.0s, m1=0.4s, m2=0.3s
**.lambda = 2.0s
**.m1 = 0.4s
**.m2 = 0.3s
**.pdistribution = uniform(4, 6)
**.vdistribution = uniform(18, 20)
**.cw = 1.0
**.n = 5

[Config Config71]
description = Configurazione con lambda=2.0s, m1=0.4s, m2=0.3s
**.lambda = 2.0s
**.m1 = 0.4s
**.m2 = 0.3s
**.pdistribution = uniform(4, 6)
**.vdistribution = uniform(20, 22)
**.cw = 1.0
**.n = 1

[Config Config72]
description = Configurazione con lambda=2.0s, m1=0.4s, m2=0.3s
**.lambda = 2.0s
**.m1 = 0.4s
**.m2 = 0.3s
**.pdistribution = uniform(4, 6)
**.vdistribution = uniform(20, 22)
**.cw = 1.0
**.n = 2

[Config Config73]
description = Configurazione con lambda=2.0s, m1=0.4s, m2=0.3s
**.lambda = 2.0s
**.m1 = 0.4s
**.m2 = 0.3s
**.pdistribution = uniform(4, 6)
**.vdistribution = uniform(20, 22)
**.cw = 1.0
**.n = 3

[Config Config74]
description = Configurazione con lambda=2.0s, m1=0.4s, m2=0.3s
**.lambda = 2.0s
**.m1 = 0.4s
**.m2 = 0.3s
**.pdistribution = uniform(4, 6)
**.vdistribution = uniform(20, 22)
**.cw = 1.0
**.n = 4

[Config Config75]
description = Configurazione con lambda=2.0s, m1=0.4s, m2=0.3s
**.lambda = 2.0s
**.m1 = 0.4s
**.m2 = 0.3s
**.pdistribution = uniform(4, 6)
**.vdistribution = uniform(20, 22)
**.cw = 1.0
**.n = 5

[Config Config76]
description = Configurazione con lambda=2.0s, m1=0.4s, m2=0.3s
**.lambda = 2.0s
**.m1 = 0.4s
**.m2 = 0.3s
**.pdistribution = uniform(8, 10)
**.vdistribution = uniform(14, 16)
**.cw = 1.0
**.n = 1

[Config Config77]
description = Configurazione con lambda=2.0s, m1=0.4s, m2=0.3s
**.lambda = 2.0s
**.m1 = 0.4s
**.m2 = 0.3s
**.pdistribution = uniform(8, 10)
**.vdistribution = uniform(14, 16)
**.cw = 1.0
**.n = 2

[Config Config78]
description = Configurazione con lambda=2.0s, m1=0.4s, m2=0.3s
**.lambda = 2.0s
**.m1 = 0.4s
**.m2 = 0.3s
**.pdistribution = uniform(8, 10)
**.vdistribution = uniform(14, 16)
**.cw = 1.0
**.n = 3

[Config Config79]
description = Configurazione con lambda=2.0s, m1=0.4s, m2=0.3s
**.lambda = 2.0s
**.m1 = 0.4s
**.m2 = 0.3s
**.pdistribution = uniform(8, 10)
**.vdistribution = uniform(14, 16)
**.cw = 1.0
**.n = 4

[Config Config80]
description = Configurazione con lambda=2.0s, m1=0.4s, m2=0.3s
**.lambda = 2.0s
**.m1 = 0.4s
**.m2 = 0.3s
**.pdistribution = uniform(8, 10)
**.vdistribution = uniform(14, 16)
**.cw = 1.0
**.n = 5

[Config Config81]
description = Configurazione con lambda=2.0s, m1=0.4s, m2=0.3s
**.lambda = 2.0s
**.m1 = 0.4s
**.m2 = 0.3s
**.pdistribution = uniform(8, 10)
**.vdistribution = uniform(18, 20)
**.cw = 1.0
**.n = 1

[Config Config82]
description = Configurazione con lambda=2.0s, m1=0.4s, m2=0.3s
**.lambda = 2.0s
**.m1 = 0.4s
**.m2 = 0.3s
**.pdistribution = uniform(8, 10)
**.vdistribution = uniform(18, 20)
**.cw = 1.0
**.n = 2

[Config Config83]
description = Configurazione con lambda=2.0s, m1=0.4s, m2=0.3s
**.lambda = 2.0s
**.m1 = 0.4s
**.m2 = 0.3s
**.pdistribution = uniform(8, 10)
**.vdistribution = uniform(18, 20)
**.cw = 1.0
**.n = 3

[Config Config84]
description = Configurazione con lambda=2.0s, m1=0.4s, m2=0.3s
**.lambda = 2.0s
**.m1 = 0.4s
**.m2 = 0.3s
**.pdistribution = uniform(8, 10)
**.vdistribution = uniform(18, 20)
**.cw = 1.0
**.n = 4

[Config Config85]
description = Configurazione con lambda=2.0s, m1=0.4s, m2=0.3s
**.lambda = 2.0s
**.m1 = 0.4s
**.m2 = 0.3s
**.pdistribution = uniform(8, 10)
**.vdistribution = uniform(18, 20)
**.cw = 1.0
**.n = 5

[Config Config86]
description = Configurazione con lambda=2.0s, m1=0.4s, m2=0.3s
**.lambda = 2.0s
**.m1 = 0.4s
**.m2 = 0.3s
**.pdistribution = uniform(8, 10)
**.vdistribution = uniform(20, 22)
**.cw = 1.0
**.n = 1

[Config Config87]
description = Configurazione con lambda=2.0s, m1=0.4s, m2=0.3s
**.lambda = 2.0s
**.m1 = 0.4s
**.m2 = 0.3s
**.pdistribution = uniform(8, 10)
**.vdistribution = uniform(20, 22)
**.cw = 1.0
**.n = 2

[Config Config88]
description = Configurazione con lambda=2.0s, m1=0.4s, m2=0.3s
**.lambda = 2.0s
**.m1 = 0.4s
**.m2 = 0.3s
**.pdistribution = uniform(8, 10)
**.vdistribution = uniform(20, 22)
**.cw = 1.0
**.n = 3

[Config Config89]
description = Configurazione con lambda=2.0s, m1=0.4s, m2=0.3s
**.lambda = 2.0s
**.m1 = 0.4s
**.m2 = 0.3s
**.pdistribution = uniform(8, 10)
**.vdistribution = uniform(20, 22)
**.cw = 1.0
**.n = 4

[Config Config90]
description = Configurazione con lambda=2.0s, m1=0.4s, m2=0.3s
**.lambda = 2.0s
**.m1 = 0.4s
**.m2 = 0.3s
**.pdistribution = uniform(8, 10)
**.vdistribution = uniform(20, 22)
**.cw = 1.0
**.n = 5

[Config Config91]
description = Configurazione con lambda=2.0s, m1=0.4s, m2=0.25s
**.lambda = 2.0s
**.m1 = 0.4s
**.m2 = 0.25s
**.pdistribution = uniform(1, 3)
**.vdistribution = uniform(14, 16)
**.cw = 1.0
**.n = 1

[Config Config92]
description = Configurazione con lambda=2.0s, m1=0.4s, m2=0.25s
**.lambda = 2.0s
**.m1 = 0.4s
**.m2 = 0.25s
**.pdistribution = uniform(1, 3)
**.vdistribution = uniform(14, 16)
**.cw = 1.0
**.n = 2

[Config Config93]
description = Configurazione con lambda=2.0s, m1=0.4s, m2=0.25s
**.lambda = 2.0s
**.m1 = 0.4s
**.m2 = 0.25s
**.pdistribution = uniform(1, 3)
**.vdistribution = uniform(14, 16)
**.cw = 1.0
**.n = 3

[Config Config94]
description = Configurazione con lambda=2.0s, m1=0.4s, m2=0.25s
**.lambda = 2.0s
**.m1 = 0.4s
**.m2 = 0.25s
**.pdistribution = uniform(1, 3)
**.vdistribution = uniform(14, 16)
**.cw = 1.0
**.n = 4

[Config Config95]
description = Configurazione con lambda=2.0s, m1=0.4s, m2=0.25s
**.lambda = 2.0s
**.m1 = 0.4s
**.m2 = 0.25s
**.pdistribution = uniform(1, 3)
**.vdistribution = uniform(14, 16)
**.cw = 1.0
**.n = 5

[Config Config96]
description = Configurazione con lambda=2.0s, m1=0.4s, m2=0.25s
**.lambda = 2.0s
**.m1 = 0.4s
**.m2 = 0.25s
**.pdistribution = uniform(1, 3)
**.vdistribution = uniform(18, 20)
**.cw = 1.0
**.n = 1

[Config Config97]
description = Configurazione con lambda=2.0s, m1=0.4s, m2=0.25s
**.lambda = 2.0s
**.m1 = 0.4s
**.m2 = 0.25s
**.pdistribution = uniform(1, 3)
**.vdistribution = uniform(18, 20)
**.cw = 1.0
**.n = 2

[Config Config98]
description = Configurazione con lambda=2.0s, m1=0.4s, m2=0.25s
**.lambda = 2.0s
**.m1 = 0.4s
**.m2 = 0.25s
**.pdistribution = uniform(1, 3)
**.vdistribution = uniform(18, 20)
**.cw = 1.0
**.n = 3

[Config Config99]
description = Configurazione con lambda=2.0s, m1=0.4s, m2=0.25s
**.lambda = 2.0s
**.m1 = 0.4s
**.m2 = 0.25s
**.pdistribution = uniform(1, 3)
**.vdistribution = uniform(18, 20)
**.cw = 1.0
**.n = 4

[Config Config100]
description = Configurazione con lambda=2.0s, m1=0.4s, m2=0.25s
**.lambda = 2.0s
**.m1 = 0.4s
**.m2 = 0.25s
**.pdistribution = uniform(1, 3)
**.vdistribution = uniform(18, 20)
**.cw = 1.0
**.n = 5

[Config Config101]
description = Configurazione con lambda=2.0s, m1=0.4s, m2=0.25s
**.lambda = 2.0s
**.m1 = 0.4s
**.m2 = 0.25s
**.pdistribution = uniform(1, 3)
**.vdistribution = uniform(20, 22)
**.cw = 1.0
**.n = 1

[Config Config102]
description = Configurazione con lambda=2.0s, m1=0.4s, m2=0.25s
**.lambda = 2.0s
**.m1 = 0.4s
**.m2 = 0.25s
**.pdistribution = uniform(1, 3)
**.vdistribution = uniform(20, 22)
**.cw = 1.0
**.n = 2

[Config Config103]
description = Configurazione con lambda=2.0s, m1=0.4s, m2=0.25s
**.lambda = 2.0s
**.m1 = 0.4s
**.m2 = 0.25s
**.pdistribution = uniform(1, 3)
**.vdistribution = uniform(20, 22)
**.cw = 1.0
**.n = 3

[Config Config104]
description = Configurazione con lambda=2.0s, m1=0.4s, m2=0.25s
**.lambda = 2.0s
**.m1 = 0.4s
**.m2 = 0.25s
**.pdistribution = uniform(1, 3)
**.vdistribution = uniform(20, 22)
**.cw = 1.0
**.n = 4

[Config Config105]
description = Configurazione con lambda=2.0s, m1=0.4s, m2=0.25s
**.lambda = 2.0s
**.m1 = 0.4s
**.m2 = 0.25s
**.pdistribution = uniform(1, 3)
**.vdistribution = uniform(20, 22)
**.cw = 1.0
**.n = 5

[Config Config106]
description = Configurazione con lambda=2.0s, m1=0.4s, m2=0.25s
**.lambda = 2.0s
**.m1 = 0.4s
**.m2 = 0.25s
**.pdistribution = uniform(4, 6)
**.vdistribution = uniform(14, 16)
**.cw = 1.0
**.n = 1

[Config Config107]
description = Configurazione con lambda=2.0s, m1=0.4s, m2=0.25s
**.lambda = 2.0s
**.m1 = 0.4s
**.m2 = 0.25s
**.pdistribution = uniform(4, 6)
**.vdistribution = uniform(14, 16)
**.cw = 1.0
**.n = 2

[Config Config108]
description = Configurazione con lambda=2.0s, m1=0.4s, m2=0.25s
**.lambda = 2.0s
**.m1 = 0.4s
**.m2 = 0.25s
**.pdistribution = uniform(4, 6)
**.vdistribution = uniform(14, 16)
**.cw = 1.0
**.n = 3

[Config Config109]
description = Configurazione con lambda=2.0s, m1=0.4s, m2=0.25s
**.lambda = 2.0s
**.m1 = 0.4s
**.m2 = 0.25s
**.pdistribution = uniform(4, 6)
**.vdistribution = uniform(14, 16)
**.cw = 1.0
**.n = 4

[Config Config110]
description = Configurazione con lambda=2.0s, m1=0.4s, m2=0.25s
**.lambda = 2.0s
**.m1 = 0.4s
**.m2 = 0.25s
**.pdistribution = uniform(4, 6)
**.vdistribution = uniform(14, 16)
**.cw = 1.0
**.n = 5

[Config Config111]
description = Configurazione con lambda=2.0s, m1=0.4s, m2=0.25s
**.lambda = 2.0s
**.m1 = 0.4s
**.m2 = 0.25s
**.pdistribution = uniform(4, 6)
**.vdistribution = uniform(18, 20)
**.cw = 1.0
**.n = 1

[Config Config112]
description = Configurazione con lambda=2.0s, m1=0.4s, m2=0.25s
**.lambda = 2.0s
**.m1 = 0.4s
**.m2 = 0.25s
**.pdistribution = uniform(4, 6)
**.vdistribution = uniform(18, 20)
**.cw = 1.0
**.n = 2

[Config Config113]
description = Configurazione con lambda=2.0s, m1=0.4s, m2=0.25s
**.lambda = 2.0s
**.m1 = 0.4s
**.m2 = 0.25s
**.pdistribution = uniform(4, 6)
**.vdistribution = uniform(18, 20)
**.cw = 1.0
**.n = 3

[Config Config114]
description = Configurazione con lambda=2.0s, m1=0.4s, m2=0.25s
**.lambda = 2.0s
**.m1 = 0.4s
**.m2 = 0.25s
**.pdistribution = uniform(4, 6)
**.vdistribution = uniform(18, 20)
**.cw = 1.0
**.n = 4

[Config Config115]
description = Configurazione con lambda=2.0s, m1=0.4s, m2=0.25s
**.lambda = 2.0s
**.m1 = 0.4s
**.m2 = 0.25s
**.pdistribution = uniform(4, 6)
**.vdistribution = uniform(18, 20)
**.cw = 1.0
**.n = 5

[Config Config116]
description = Configurazione con lambda=2.0s, m1=0.4s, m2=0.25s
**.lambda = 2.0s
**.m1 = 0.4s
**.m2 = 0.25s
**.pdistribution = uniform(4, 6)
**.vdistribution = uniform(20, 22)
**.cw = 1.0
**.n = 1

[Config Config117]
description = Configurazione con lambda=2.0s, m1=0.4s, m2=0.25s
**.lambda = 2.0s
**.m1 = 0.4s
**.m2 = 0.25s
**.pdistribution = uniform(4, 6)
**.vdistribution = uniform(20, 22)
**.cw = 1.0
**.n = 2

[Config Config118]
description = Configurazione con lambda=2.0s, m1=0.4s, m2=0.25s
**.lambda = 2.0s
**.m1 = 0.4s
**.m2 = 0.25s
**.pdistribution = uniform(4, 6)
**.vdistribution = uniform(20, 22)
**.cw = 1.0
**.n = 3

[Config Config119]
description = Configurazione con lambda=2.0s, m1=0.4s, m2=0.25s
**.lambda = 2.0s
**.m1 = 0.4s
**.m2 = 0.25s
**.pdistribution = uniform(4, 6)
**.vdistribution = uniform(20, 22)
**.cw = 1.0
**.n = 4

[Config Config120]
description = Configurazione con lambda=2.0s, m1=0.4s, m2=0.25s
**.lambda = 2.0s
**.m1 = 0.4s
**.m2 = 0.25s
**.pdistribution = uniform(4, 6)
**.vdistribution = uniform(20, 22)
**.cw = 1.0
**.n = 5

[Config Config121]
description = Configurazione con lambda=2.0s, m1=0.4s, m2=0.25s
**.lambda = 2.0s
**.m1 = 0.4s
**.m2 = 0.25s
**.pdistribution = uniform(8, 10)
**.vdistribution = uniform(14, 16)
**.cw = 1.0
**.n = 1

[Config Config122]
description = Configurazione con lambda=2.0s, m1=0.4s, m2=0.25s
**.lambda = 2.0s
**.m1 = 0.4s
**.m2 = 0.25s
**.pdistribution = uniform(8, 10)
**.vdistribution = uniform(14, 16)
**.cw = 1.0
**.n = 2

[Config Config123]
description = Configurazione con lambda=2.0s, m1=0.4s, m2=0.25s
**.lambda = 2.0s
**.m1 = 0.4s
**.m2 = 0.25s
**.pdistribution = uniform(8, 10)
**.vdistribution = uniform(14, 16)
**.cw = 1.0
**.n = 3

[Config Config124]
description = Configurazione con lambda=2.0s, m1=0.4s, m2=0.25s
**.lambda = 2.0s
**.m1 = 0.4s
**.m2 = 0.25s
**.pdistribution = uniform(8, 10)
**.vdistribution = uniform(14, 16)
**.cw = 1.0
**.n = 4

[Config Config125]
description = Configurazione con lambda=2.0s, m1=0.4s, m2=0.25s
**.lambda = 2.0s
**.m1 = 0.4s
**.m2 = 0.25s
**.pdistribution = uniform(8, 10)
**.vdistribution = uniform(14, 16)
**.cw = 1.0
**.n = 5

[Config Config126]
description = Configurazione con lambda=2.0s, m1=0.4s, m2=0.25s
**.lambda = 2.0s
**.m1 = 0.4s
**.m2 = 0.25s
**.pdistribution = uniform(8, 10)
**.vdistribution = uniform(18, 20)
**.cw = 1.0
**.n = 1

[Config Config127]
description = Configurazione con lambda=2.0s, m1=0.4s, m2=0.25s
**.lambda = 2.0s
**.m1 = 0.4s
**.m2 = 0.25s
**.pdistribution = uniform(8, 10)
**.vdistribution = uniform(18, 20)
**.cw = 1.0
**.n = 2

[Config Config128]
description = Configurazione con lambda=2.0s, m1=0.4s, m2=0.25s
**.lambda = 2.0s
**.m1 = 0.4s
**.m2 = 0.25s
**.pdistribution = uniform(8, 10)
**.vdistribution = uniform(18, 20)
**.cw = 1.0
**.n = 3

[Config Config129]
description = Configurazione con lambda=2.0s, m1=0.4s, m2=0.25s
**.lambda = 2.0s
**.m1 = 0.4s
**.m2 = 0.25s
**.pdistribution = uniform(8, 10)
**.vdistribution = uniform(18, 20)
**.cw = 1.0
**.n = 4

[Config Config130]
description = Configurazione con lambda=2.0s, m1=0.4s, m2=0.25s
**.lambda = 2.0s
**.m1 = 0.4s
**.m2 = 0.25s
**.pdistribution = uniform(8, 10)
**.vdistribution = uniform(18, 20)
**.cw = 1.0
**.n = 5

[Config Config131]
description = Configurazione con lambda=2.0s, m1=0.4s, m2=0.25s
**.lambda = 2.0s
**.m1 = 0.4s
**.m2 = 0.25s
**.pdistribution = uniform(8, 10)
**.vdistribution = uniform(20, 22)
**.cw = 1.0
**.n = 1

[Config Config132]
description = Configurazione con lambda=2.0s, m1=0.4s, m2=0.25s
**.lambda = 2.0s
**.m1 = 0.4s
**.m2 = 0.25s
**.pdistribution = uniform(8, 10)
**.vdistribution = uniform(20, 22)
**.cw = 1.0
**.n = 2

[Config Config133]
description = Configurazione con lambda=2.0s, m1=0.4s, m2=0.25s
**.lambda = 2.0s
**.m1 = 0.4s
**.m2 = 0.25s
**.pdistribution = uniform(8, 10)
**.vdistribution = uniform(20, 22)
**.cw = 1.0
**.n = 3

[Config Config134]
description = Configurazione con lambda=2.0s, m1=0.4s, m2=0.25s
**.lambda = 2.0s
**.m1 = 0.4s
**.m2 = 0.25s
**.pdistribution = uniform(8, 10)
**.vdistribution = uniform(20, 22)
**.cw = 1.0
**.n = 4

[Config Config135]
description = Configurazione con lambda=2.0s, m1=0.4s, m2=0.25s
**.lambda = 2.0s
**.m1 = 0.4s
**.m2 = 0.25s
**.pdistribution = uniform(8, 10)
**.vdistribution = uniform(20, 22)
**.cw = 1.0
**.n = 5

[Config Config136]
description = Configurazione con lambda=2.0s, m1=0.4s, m2=0.2s
**.lambda = 2.0s
**.m1 = 0.4s
**.m2 = 0.2s
**.pdistribution = uniform(1, 3)
**.vdistribution = uniform(14, 16)
**.cw = 1.0
**.n = 1

[Config Config137]
description = Configurazione con lambda=2.0s, m1=0.4s, m2=0.2s
**.lambda = 2.0s
**.m1 = 0.4s
**.m2 = 0.2s
**.pdistribution = uniform(1, 3)
**.vdistribution = uniform(14, 16)
**.cw = 1.0
**.n = 2

[Config Config138]
description = Configurazione con lambda=2.0s, m1=0.4s, m2=0.2s
**.lambda = 2.0s
**.m1 = 0.4s
**.m2 = 0.2s
**.pdistribution = uniform(1, 3)
**.vdistribution = uniform(14, 16)
**.cw = 1.0
**.n = 3
